data_bww18524
_audit_creation_date               2018-11-13
_audit_creation_method
;
Olex2 1.2
(compiled 2018.05.29 svn.r3508 for OlexSys, GUI svn.r5506)
;
_shelx_SHELXL_version_number       '2018/3'
_audit_contact_author_address      ?
_audit_contact_author_email        ?
_audit_contact_author_name         ''
_audit_contact_author_phone        ?
_audit_update_record
;
????
;
_publ_contact_author_id_orcid      ?
_publ_section_references
;
Dolomanov, O.V., Bourhis, L.J., Gildea, R.J, Howard, J.A.K. & Puschmann, H.
 (2009), J. Appl. Cryst. 42, 339-341.

Sheldrick, G.M. (2008). Acta Cryst. A64, 112-122.

Sheldrick, G.M. (2015). Acta Cryst. C71, 3-8.
;
_chemical_name_common              ?
_chemical_name_systematic          ?
_chemical_formula_moiety           'C11 H12 O5'
_chemical_formula_sum              'C11 H12 O5'
_chemical_formula_weight           224.21
_chemical_absolute_configuration   unk
_chemical_melting_point            ?
loop_
  _atom_type_symbol
  _atom_type_description
  _atom_type_scat_dispersion_real
  _atom_type_scat_dispersion_imag
  _atom_type_scat_source
 'C' 'C' 0.0033 0.0016 'International Tables Vol C Tables 4.2.6.8 and 6.1.1.4'
 'H' 'H' 0.0000 0.0000 'International Tables Vol C Tables 4.2.6.8 and 6.1.1.4'
 'O' 'O' 0.0106 0.0060 'International Tables Vol C Tables 4.2.6.8 and 6.1.1.4'

_shelx_space_group_comment
;
The symmetry employed for this shelxl refinement is uniquely defined
by the following loop, which should always be used as a source of
symmetry information in preference to the above space-group names.
They are only intended as comments.
;
_space_group_crystal_system        'monoclinic'
_space_group_IT_number             9
_space_group_name_H-M_alt          'C 1 c 1'
_space_group_name_Hall             'C -2yc'
loop_
  _space_group_symop_operation_xyz
 'x, y, z'
 'x, -y, z+1/2'
 'x+1/2, y+1/2, z'
 'x+1/2, -y+1/2, z+1/2'

_cell_length_a                     6.0855(12)
_cell_length_b                     12.683(3)
_cell_length_c                     13.554(3)
_cell_angle_alpha                  90
_cell_angle_beta                   93.29(3)
_cell_angle_gamma                  90
_cell_volume                       1044.4(4)
_cell_formula_units_Z              4
_cell_measurement_reflns_used      1810
_cell_measurement_temperature      173(2)
_cell_measurement_theta_max        27.4816
_cell_measurement_theta_min        1.5049
_shelx_estimated_absorpt_T_max     0.978
_shelx_estimated_absorpt_T_min     0.973
_exptl_absorpt_coefficient_mu      0.114
_exptl_absorpt_correction_T_max    1.0000
_exptl_absorpt_correction_T_min    0.9014
_exptl_absorpt_correction_type     multi-scan
_exptl_absorpt_process_details     'CrystalClear (Rigaku Inc., 2008)'
_exptl_absorpt_special_details     ?
_exptl_crystal_colour              colorless
_exptl_crystal_density_diffrn      1.426
_exptl_crystal_density_meas        ?
_exptl_crystal_density_method      ?
_exptl_crystal_description         block
_exptl_crystal_F_000               472
_exptl_crystal_size_max            0.24
_exptl_crystal_size_mid            0.23
_exptl_crystal_size_min            0.2
_exptl_transmission_factor_max     ?
_exptl_transmission_factor_min     ?
_diffrn_reflns_av_R_equivalents    0.0195
_diffrn_reflns_av_unetI/netI       0.0275
_diffrn_reflns_Laue_measured_fraction_full  0.997
_diffrn_reflns_Laue_measured_fraction_max  0.993
_diffrn_reflns_limit_h_max         7
_diffrn_reflns_limit_h_min         -7
_diffrn_reflns_limit_k_max         16
_diffrn_reflns_limit_k_min         -16
_diffrn_reflns_limit_l_max         17
_diffrn_reflns_limit_l_min         -15
_diffrn_reflns_number              3410
_diffrn_reflns_point_group_measured_fraction_full  0.936
_diffrn_reflns_point_group_measured_fraction_max  0.905
_diffrn_reflns_theta_full          25.242
_diffrn_reflns_theta_max           27.480
_diffrn_reflns_theta_min           3.548
_diffrn_ambient_temperature        173.15
_diffrn_detector_area_resol_mean   ?
_diffrn_measured_fraction_theta_full  0.997
_diffrn_measured_fraction_theta_max  0.993
_diffrn_measurement_device_type    'multiwire proportional'
_diffrn_measurement_method         'phi and omega scans'
_diffrn_radiation_monochromator    'graphite'
_diffrn_radiation_type             MoK\a
_diffrn_radiation_wavelength       0.71073
_diffrn_source                     ?
_reflns_Friedel_coverage           0.817
_reflns_Friedel_fraction_full      0.874
_reflns_Friedel_fraction_max       0.816
_reflns_number_gt                  2123
_reflns_number_total               2169
_reflns_special_details
;
 Reflections were merged by SHELXL according to the crystal
 class for the calculation of statistics and refinement.
 
 _reflns_Friedel_fraction is defined as the number of unique
 Friedel pairs measured divided by the number that would be
 possible theoretically, ignoring centric projections and
 systematic absences.
;
_reflns_threshold_expression       'I > 2\s(I)'
_computing_cell_refinement         ?
_computing_data_collection         ?
_computing_data_reduction          ?
_computing_molecular_graphics      'Olex2 (Dolomanov et al., 2009)'
_computing_publication_material    'Olex2 (Dolomanov et al., 2009)'
_computing_structure_refinement    'ShelXL (Sheldrick, 2015)'
_computing_structure_solution      'ShelXS (Sheldrick, 2008)'
_refine_diff_density_max           0.216
_refine_diff_density_min           -0.137
_refine_diff_density_rms           0.033
_refine_ls_abs_structure_details
;
 Flack x determined using 902 quotients [(I+)-(I-)]/[(I+)+(I-)]
 (Parsons, Flack and Wagner, Acta Cryst. B69 (2013) 249-259).
;
_refine_ls_abs_structure_Flack     0.6(6)
_refine_ls_extinction_coef         .
_refine_ls_extinction_method       none
_refine_ls_goodness_of_fit_ref     1.042
_refine_ls_hydrogen_treatment      constr
_refine_ls_matrix_type             full
_refine_ls_number_parameters       146
_refine_ls_number_reflns           2169
_refine_ls_number_restraints       2
_refine_ls_R_factor_all            0.0346
_refine_ls_R_factor_gt             0.0337
_refine_ls_restrained_S_all        1.042
_refine_ls_shift/su_max            0.000
_refine_ls_shift/su_mean           0.000
_refine_ls_structure_factor_coef   Fsqd
_refine_ls_weighting_details      
 'w=1/[\s^2^(Fo^2^)+(0.0371P)^2^+0.5051P] where P=(Fo^2^+2Fc^2^)/3'
_refine_ls_weighting_scheme        calc
_refine_ls_wR_factor_gt            0.0805
_refine_ls_wR_factor_ref           0.0815
_refine_special_details            ?
_olex2_refinement_description
;
1. Fixed Uiso
 At 1.2 times of:
  All C(H) groups, All C(H,H) groups
 At 1.5 times of:
  All C(H,H,H) groups
2.a Ternary CH refined with riding coordinates:
 C5(H5), C7(H7)
2.b Secondary CH2 refined with riding coordinates:
 C6(H6A,H6B)
2.c Aromatic/amide H refined with riding coordinates:
 C2(H2), C3(H3), C8(H8)
2.d X=CH2 refined with riding coordinates:
 C9(H9A,H9B)
2.e Idealised Me refined as rotating group:
 C11(H11A,H11B,H11C)
;
_atom_sites_solution_hydrogens     geom
_atom_sites_solution_primary       direct
_atom_sites_solution_secondary     ?
loop_
  _atom_site_label
  _atom_site_type_symbol
  _atom_site_fract_x
  _atom_site_fract_y
  _atom_site_fract_z
  _atom_site_U_iso_or_equiv
  _atom_site_adp_type
  _atom_site_occupancy
  _atom_site_site_symmetry_order
  _atom_site_calc_flag
  _atom_site_refinement_flags_posn
  _atom_site_refinement_flags_adp
  _atom_site_refinement_flags_occupancy
  _atom_site_disorder_assembly
  _atom_site_disorder_group
 O1 O 0.7625(4) 0.31957(17) 0.74874(17) 0.0520(6) Uani 1 1 d . . . . .
 O2 O 0.7623(3) 0.42614(15) 0.62120(15) 0.0376(5) Uani 1 1 d . . . . .
 O3 O 0.7121(3) 0.60269(15) 0.59047(16) 0.0396(5) Uani 1 1 d . . . . .
 O4 O 0.4603(3) 0.46732(14) 0.36392(13) 0.0298(4) Uani 1 1 d . . . . .
 O5 O 0.1246(2) 0.44546(14) 0.42161(12) 0.0276(4) Uani 1 1 d . . . . .
 C1 C 0.6546(4) 0.3698(2) 0.6880(2) 0.0334(6) Uani 1 1 d . . . . .
 C2 C 0.4153(4) 0.37055(19) 0.67885(18) 0.0290(5) Uani 1 1 d . . . . .
 H2 H 0.336831 0.331615 0.725287 0.035 Uiso 1 1 calc R . . . .
 C3 C 0.3025(3) 0.42317(18) 0.60871(17) 0.0232(5) Uani 1 1 d . . . . .
 H3 H 0.147086 0.414946 0.602987 0.028 Uiso 1 1 calc R . . . .
 C4 C 0.4083(3) 0.49524(18) 0.53772(16) 0.0227(5) Uani 1 1 d . . . . .
 C5 C 0.6614(4) 0.5024(2) 0.55386(18) 0.0280(5) Uani 1 1 d . . . . .
 H5 H 0.727382 0.494422 0.488377 0.034 Uiso 1 1 calc R . . . .
 C6 C 0.5193(4) 0.6465(2) 0.6317(2) 0.0339(6) Uani 1 1 d . . . . .
 H6A H 0.528625 0.724311 0.635442 0.041 Uiso 1 1 calc R . . . .
 H6B H 0.499905 0.618069 0.698713 0.041 Uiso 1 1 calc R . . . .
 C7 C 0.3318(4) 0.61178(18) 0.55959(17) 0.0252(5) Uani 1 1 d . . . . .
 H7 H 0.189663 0.610955 0.593120 0.030 Uiso 1 1 calc R . . . .
 C8 C 0.3129(4) 0.68112(19) 0.46980(19) 0.0306(5) Uani 1 1 d . . . . .
 H8 H 0.443806 0.700414 0.439371 0.037 Uiso 1 1 calc R . . . .
 C9 C 0.1229(5) 0.7166(2) 0.4310(2) 0.0392(6) Uani 1 1 d . . . . .
 H9A H -0.010246 0.698405 0.460133 0.047 Uiso 1 1 calc R . . . .
 H9B H 0.119531 0.760340 0.374065 0.047 Uiso 1 1 calc R . . . .
 C10 C 0.3394(4) 0.46718(17) 0.43123(17) 0.0224(4) Uani 1 1 d . . . . .
 C11 C 0.0342(4) 0.4279(2) 0.32161(18) 0.0331(6) Uani 1 1 d . . . . .
 H11A H 0.067672 0.488538 0.280278 0.050 Uiso 1 1 calc GR . . . .
 H11B H -0.125691 0.419062 0.322216 0.050 Uiso 1 1 calc GR . . . .
 H11C H 0.099563 0.364142 0.294782 0.050 Uiso 1 1 calc GR . . . .

loop_
  _atom_site_aniso_label
  _atom_site_aniso_U_11
  _atom_site_aniso_U_22
  _atom_site_aniso_U_33
  _atom_site_aniso_U_23
  _atom_site_aniso_U_13
  _atom_site_aniso_U_12
 O1 0.0471(12) 0.0450(12) 0.0608(14) 0.0106(10) -0.0238(11) 0.0063(9)
 O2 0.0198(8) 0.0446(11) 0.0474(12) 0.0022(9) -0.0047(8) 0.0040(7)
 O3 0.0277(9) 0.0417(10) 0.0488(12) 0.0028(9) -0.0045(8) -0.0144(8)
 O4 0.0249(8) 0.0416(10) 0.0233(8) -0.0010(7) 0.0050(7) 0.0012(7)
 O5 0.0206(8) 0.0395(9) 0.0224(8) -0.0032(7) -0.0007(6) -0.0045(7)
 C1 0.0336(13) 0.0296(12) 0.0356(13) -0.0018(10) -0.0100(11) 0.0031(10)
 C2 0.0291(12) 0.0307(12) 0.0269(12) 0.0013(10) -0.0014(9) -0.0027(9)
 C3 0.0195(10) 0.0274(11) 0.0227(11) -0.0004(8) 0.0015(8) -0.0025(8)
 C4 0.0190(10) 0.0281(11) 0.0212(11) -0.0010(8) 0.0024(8) -0.0019(8)
 C5 0.0177(10) 0.0421(13) 0.0240(11) 0.0005(10) -0.0003(8) -0.0036(9)
 C6 0.0396(14) 0.0302(12) 0.0310(14) -0.0014(10) -0.0050(11) -0.0067(11)
 C7 0.0262(11) 0.0270(11) 0.0224(12) -0.0015(9) 0.0027(9) -0.0021(9)
 C8 0.0355(13) 0.0266(11) 0.0297(12) 0.0011(10) 0.0008(10) -0.0022(10)
 C9 0.0446(15) 0.0328(13) 0.0394(15) 0.0012(11) -0.0046(12) 0.0047(11)
 C10 0.0211(11) 0.0233(10) 0.0227(11) 0.0016(8) 0.0006(9) 0.0019(8)
 C11 0.0287(12) 0.0470(15) 0.0229(12) -0.0035(10) -0.0054(10) -0.0041(11)

_geom_special_details
;
 All esds (except the esd in the dihedral angle between two l.s. planes)
 are estimated using the full covariance matrix.  The cell esds are taken
 into account individually in the estimation of esds in distances, angles
 and torsion angles; correlations between esds in cell parameters are only
 used when they are defined by crystal symmetry.  An approximate (isotropic)
 treatment of cell esds is used for estimating esds involving l.s. planes.
;
loop_
  _geom_bond_atom_site_label_1
  _geom_bond_atom_site_label_2
  _geom_bond_distance
  _geom_bond_site_symmetry_2
  _geom_bond_publ_flag
 O1 C1 1.205(3) . ?
 O2 C1 1.352(3) . ?
 O2 C5 1.442(3) . ?
 O3 C5 1.394(3) . ?
 O3 C6 1.440(4) . ?
 O4 C10 1.205(3) . ?
 O5 C10 1.335(3) . ?
 O5 C11 1.451(3) . ?
 C1 C2 1.455(4) . ?
 C2 H2 0.9500 . ?
 C2 C3 1.321(3) . ?
 C3 H3 0.9500 . ?
 C3 C4 1.499(3) . ?
 C4 C5 1.546(3) . ?
 C4 C7 1.583(3) . ?
 C4 C10 1.522(3) . ?
 C5 H5 1.0000 . ?
 C6 H6A 0.9900 . ?
 C6 H6B 0.9900 . ?
 C6 C7 1.524(3) . ?
 C7 H7 1.0000 . ?
 C7 C8 1.500(3) . ?
 C8 H8 0.9500 . ?
 C8 C9 1.321(4) . ?
 C9 H9A 0.9500 . ?
 C9 H9B 0.9500 . ?
 C11 H11A 0.9800 . ?
 C11 H11B 0.9800 . ?
 C11 H11C 0.9800 . ?

loop_
  _geom_angle_atom_site_label_1
  _geom_angle_atom_site_label_2
  _geom_angle_atom_site_label_3
  _geom_angle
  _geom_angle_site_symmetry_1
  _geom_angle_site_symmetry_3
  _geom_angle_publ_flag
 C1 O2 C5 124.97(19) . . ?
 C5 O3 C6 108.78(18) . . ?
 C10 O5 C11 116.09(19) . . ?
 O1 C1 O2 118.1(3) . . ?
 O1 C1 C2 124.4(3) . . ?
 O2 C1 C2 117.4(2) . . ?
 C1 C2 H2 118.6 . . ?
 C3 C2 C1 122.7(2) . . ?
 C3 C2 H2 118.6 . . ?
 C2 C3 H3 118.5 . . ?
 C2 C3 C4 123.0(2) . . ?
 C4 C3 H3 118.5 . . ?
 C3 C4 C5 113.97(18) . . ?
 C3 C4 C7 107.90(19) . . ?
 C3 C4 C10 111.16(18) . . ?
 C5 C4 C7 102.73(18) . . ?
 C10 C4 C5 111.45(18) . . ?
 C10 C4 C7 109.15(18) . . ?
 O2 C5 C4 115.77(19) . . ?
 O2 C5 H5 108.4 . . ?
 O3 C5 O2 108.01(19) . . ?
 O3 C5 C4 107.57(19) . . ?
 O3 C5 H5 108.4 . . ?
 C4 C5 H5 108.4 . . ?
 O3 C6 H6A 111.0 . . ?
 O3 C6 H6B 111.0 . . ?
 O3 C6 C7 103.7(2) . . ?
 H6A C6 H6B 109.0 . . ?
 C7 C6 H6A 111.0 . . ?
 C7 C6 H6B 111.0 . . ?
 C4 C7 H7 110.3 . . ?
 C6 C7 C4 99.92(19) . . ?
 C6 C7 H7 110.3 . . ?
 C8 C7 C4 113.89(19) . . ?
 C8 C7 C6 111.8(2) . . ?
 C8 C7 H7 110.3 . . ?
 C7 C8 H8 118.4 . . ?
 C9 C8 C7 123.2(3) . . ?
 C9 C8 H8 118.4 . . ?
 C8 C9 H9A 120.0 . . ?
 C8 C9 H9B 120.0 . . ?
 H9A C9 H9B 120.0 . . ?
 O4 C10 O5 124.3(2) . . ?
 O4 C10 C4 124.8(2) . . ?
 O5 C10 C4 110.84(18) . . ?
 O5 C11 H11A 109.5 . . ?
 O5 C11 H11B 109.5 . . ?
 O5 C11 H11C 109.5 . . ?
 H11A C11 H11B 109.5 . . ?
 H11A C11 H11C 109.5 . . ?
 H11B C11 H11C 109.5 . . ?

loop_
  _geom_torsion_atom_site_label_1
  _geom_torsion_atom_site_label_2
  _geom_torsion_atom_site_label_3
  _geom_torsion_atom_site_label_4
  _geom_torsion
  _geom_torsion_site_symmetry_1
  _geom_torsion_site_symmetry_2
  _geom_torsion_site_symmetry_3
  _geom_torsion_site_symmetry_4
  _geom_torsion_publ_flag
 O1 C1 C2 C3 -177.1(3) . . . . ?
 O2 C1 C2 C3 0.3(4) . . . . ?
 O3 C6 C7 C4 40.4(2) . . . . ?
 O3 C6 C7 C8 -80.4(2) . . . . ?
 C1 O2 C5 O3 102.8(3) . . . . ?
 C1 O2 C5 C4 -17.8(3) . . . . ?
 C1 C2 C3 C4 -6.0(4) . . . . ?
 C2 C3 C4 C5 0.1(3) . . . . ?
 C2 C3 C4 C7 -113.3(2) . . . . ?
 C2 C3 C4 C10 127.0(2) . . . . ?
 C3 C4 C5 O2 10.7(3) . . . . ?
 C3 C4 C5 O3 -110.1(2) . . . . ?
 C3 C4 C7 C6 92.7(2) . . . . ?
 C3 C4 C7 C8 -147.97(19) . . . . ?
 C3 C4 C10 O4 -139.8(2) . . . . ?
 C3 C4 C10 O5 42.2(3) . . . . ?
 C4 C7 C8 C9 111.6(3) . . . . ?
 C5 O2 C1 O1 -170.0(2) . . . . ?
 C5 O2 C1 C2 12.4(4) . . . . ?
 C5 O3 C6 C7 -39.5(2) . . . . ?
 C5 C4 C7 C6 -28.0(2) . . . . ?
 C5 C4 C7 C8 91.3(2) . . . . ?
 C5 C4 C10 O4 -11.5(3) . . . . ?
 C5 C4 C10 O5 170.50(19) . . . . ?
 C6 O3 C5 O2 -105.4(2) . . . . ?
 C6 O3 C5 C4 20.2(2) . . . . ?
 C6 C7 C8 C9 -136.0(3) . . . . ?
 C7 C4 C5 O2 127.2(2) . . . . ?
 C7 C4 C5 O3 6.3(2) . . . . ?
 C7 C4 C10 O4 101.3(3) . . . . ?
 C7 C4 C10 O5 -76.7(2) . . . . ?
 C10 C4 C5 O2 -116.1(2) . . . . ?
 C10 C4 C5 O3 123.1(2) . . . . ?
 C10 C4 C7 C6 -146.35(19) . . . . ?
 C10 C4 C7 C8 -27.1(3) . . . . ?
 C11 O5 C10 O4 -4.1(3) . . . . ?
 C11 O5 C10 C4 174.01(19) . . . . ?

loop_
  _refln_index_h
  _refln_index_k
  _refln_index_l
  _refln_F_squared_meas
  _refln_F_squared_sigma
  _refln_scale_group_code
 0 0 -1 19.7 5 1
 0 0 1 -1.6 3.78 1
 0 0 1 22.54 10.83 1
 0 0 -1 14.52 8.77 1
 0 0 -4 270191.9 2610.37 1
 0 0 4 276968.9 2674.75 1
 0 0 4 281548 2767.31 1
 0 0 -4 271694.2 2673.42 1
 0 0 -5 79.89 28.21 1
 0 0 5 84.82 26.09 1
 0 0 5 70.22 34.71 1
 0 0 -5 68.29 37.21 1
 0 0 -6 176509.9 1733.8 1
 0 0 6 174106.1 1711.04 1
 0 0 6 176838.7 1827.6 1
 0 0 -6 166600.5 1717.38 1
 0 0 -7 11.07 19.72 1
 0 0 7 161.61 30.3 1
 0 0 7 101.96 57.66 1
 0 0 -8 36599.89 440.56 1
 0 0 8 36294.39 433.15 1
 0 0 8 34978.77 598.18 1
 0 0 -9 127.67 25.88 1
 0 0 9 122.37 41.77 1
 0 0 9 79.66 59.29 1
 0 0 -10 26707.34 918.55 1
 0 0 10 26922.5 922.12 1
 0 0 10 26394.59 961.85 1
 0 0 -11 83.95 31.11 1
 0 0 11 77.17 34.57 1
 0 0 11 131.17 61.76 1
 0 0 -12 16321.45 445.37 1
 0 0 12 17753.09 549.32 1
 0 0 13 189.15 72.75 1
 0 0 14 16147.58 786.45 1
 0 0 15 161.44 81.77 1
 0 0 16 42433.67 6253.75 1
 0 0 17 282.13 92.81 1
 0 2 1 12803.03 155.93 1
 0 2 -1 13021.3 175.22 1
 0 -2 1 13017.08 172.35 1
 0 -2 -1 13864.33 165.01 1
 0 -2 1 13116.39 175.74 1
 0 2 -1 13399.3 172.22 1
 0 2 2 145301.9 1408.11 1
 0 2 -2 142903.4 1426.45 1
 0 -2 2 145212.2 1441.8 1
 0 -2 -2 145274.9 1407.8 1
 0 -2 -2 142917.3 1424.01 1
 0 -2 2 142394.6 1416.33 1
 0 2 -2 145584.5 1445.41 1
 0 2 -3 646610.5 6748.76 1
 0 -2 3 643800.1 6716.16 1
 0 2 3 639800 6689.07 1
 0 -2 -3 685519.7 7160.72 1
 0 2 -3 644742 6732.96 1
 0 2 -4 389246.8 3784.22 1
 0 -2 4 394091 3831.36 1
 0 -2 -4 381936.3 3738.44 1
 0 -2 4 394531.6 3857.08 1
 0 2 -4 387021.6 3776.17 1
 0 2 -5 24597.21 315.63 1
 0 -2 5 24210.66 311.38 1
 0 2 5 24439.09 358.76 1
 0 -2 -5 23641.8 333.96 1
 0 -2 5 22789.87 324.53 1
 0 2 -5 23181.64 315.63 1
 0 -2 6 36425.58 434.14 1
 0 2 6 36867.25 571.21 1
 0 2 -7 4060.29 116.86 1
 0 -2 7 3659.8 107.72 1
 0 2 7 3976.29 362.71 1
 0 -2 7 3374.41 130.44 1
 0 -2 8 14727.79 238.83 1
 0 2 8 15753.16 300.89 1
 0 -2 8 15900.98 322.32 1
 0 2 -9 18605.72 658.2 1
 0 -2 9 16225.25 576.87 1
 0 2 9 17410.75 655.57 1
 0 -2 9 17168.51 761.53 1
 0 2 -10 12159.89 447.83 1
 0 -2 10 11137.77 410.48 1
 0 2 10 11890.07 474.44 1
 0 -2 10 13242.17 761.64 1
 0 2 -11 38997.03 984.82 1
 0 2 11 37360.03 1019.16 1
 0 -2 11 36088.07 1050.6 1
 0 2 -12 7295.79 394.26 1
 0 2 12 7552.66 799.39 1
 0 -2 12 7916.08 872.41 1
 0 2 -13 13688.77 610.8 1
 0 2 13 14367.22 1012.27 1
 0 -2 13 15333.98 985.01 1
 0 2 -14 1611.8 286.24 1
 0 2 14 2388.35 443.01 1
 0 -2 14 2281.44 329.12 1
 0 2 15 7816.92 1110.44 1
 0 -2 15 7061.57 592.61 1
 0 2 16 12517.31 1106.63 1
 0 -2 16 12186.97 858.13 1
 0 2 17 3156.45 778.83 1
 0 -2 17 3277.22 614.81 1
 0 4 0 52181.06 582.14 1
 0 4 1 846064.1 8816.72 1
 0 -4 1 850106.5 8871.14 1
 0 4 2 675660.7 7045.63 1
 0 4 -2 717627.5 7514.16 1
 0 -4 2 667839.5 6993.88 1
 0 -4 -2 652232.6 6801.86 1
 0 4 -2 699328.1 7314.19 1
 0 4 3 51931.49 548.41 1
 0 4 -3 51072.08 595.99 1
 0 -4 3 49549.5 574.95 1
 0 -4 -3 52388.87 553.07 1
 0 4 -3 52234.15 588.48 1
 0 4 4 29005.75 319.32 1
 0 4 -4 30336.34 397.15 1
 0 -4 4 29655.1 385.31 1
 0 -4 -4 27843.04 308.7 1
 0 -4 -4 29602.78 412.9 1
 0 4 -4 28017.73 371.06 1
 0 4 5 278479.6 2685.95 1
 0 4 -5 265655.4 2662.56 1
 0 -4 5 273841.3 2730.69 1
 0 -4 -5 269067.6 2597.5 1
 0 -4 5 265722.7 2673.45 1
 0 4 -6 31781.97 452.44 1
 0 -4 6 33756.06 480.03 1
 0 4 -7 26104.07 389.54 1
 0 4 7 25433.82 433.26 1
 0 -4 7 24470.48 392.67 1
 0 4 -8 22727.71 804.53 1
 0 4 8 23753.15 860.29 1
 0 -4 8 23822.42 853.48 1
 0 4 -9 8909.67 360.54 1
 0 4 9 8599.61 446.63 1
 0 -4 9 9275.16 380.64 1
 0 4 -10 41812.54 1068.35 1
 0 4 10 40889.23 1184.87 1
 0 -4 10 37095.92 987.29 1
 0 4 -11 50001.8 1253.98 1
 0 4 11 49231.96 1276.94 1
 0 -4 11 50155.98 1311.65 1
 0 4 -12 3916.96 241.02 1
 0 4 12 4518.62 592.77 1
 0 -4 12 4050.2 368.35 1
 0 4 -13 1041.51 120.44 1
 0 4 13 1356.16 218.3 1
 0 -4 13 1498.57 217.58 1
 0 4 -14 7824.62 382 1
 0 4 14 7694.64 662.35 1
 0 -4 14 6967.39 823.67 1
 0 4 15 4308.63 720.19 1
 0 -4 15 4261.51 488.14 1
 0 4 16 5426.54 795.78 1
 0 -4 16 5343.66 453.92 1
 0 4 17 6751.79 810.49 1
 0 -4 17 6394.95 983.23 1
 0 6 0 262.4 65.81 1
 0 6 1 111982.2 1178.17 1
 0 6 -1 112853 1201.81 1
 0 -6 -1 112413.3 1182.1 1
 0 -6 1 111028.5 1195.65 1
 0 6 2 15946.3 244.49 1
 0 6 -2 15930.34 269.12 1
 0 -6 -2 16400.92 247.91 1
 0 6 3 11380.45 197.52 1
 0 6 -3 11802.66 234.88 1
 0 -6 -3 11962.51 201.67 1
 0 -6 3 12660.64 290.54 1
 0 6 4 177221.6 1910.37 1
 0 6 -4 181401.2 2029.62 1
 0 -6 -4 178931.2 1930.88 1
 0 -6 4 187578.5 2082.95 1
 0 6 5 177806.8 1907.81 1
 0 6 -5 175704.2 1977.85 1
 0 -6 -5 177019.8 1900.66 1
 0 6 6 54825.25 622.4 1
 0 6 -6 57330.96 772.94 1
 0 -6 -6 52188.54 595.85 1
 0 -6 6 52820.67 707.57 1
 0 6 7 15382.76 528.72 1
 0 6 -7 13960.11 524.86 1
 0 -6 -7 15094.53 515.65 1
 0 -6 7 15980.93 596.33 1
 0 6 -8 14946.71 563.41 1
 0 -6 8 15081.24 571.18 1
 0 6 -9 15614.62 461.98 1
 0 -6 9 15281.16 814.17 1
 0 6 -10 46521.63 1190.15 1
 0 -6 10 46903.19 1217.13 1
 0 6 -11 8353.01 468.58 1
 0 -6 11 8101.55 472.13 1
 0 6 -12 9897.09 317.94 1
 0 -6 12 9475.54 338.93 1
 0 6 -13 7379.21 373.34 1
 0 -6 13 6601.48 873.99 1
 0 6 -14 1021.11 151.3 1
 0 -6 14 391.11 103.94 1
 0 6 -15 6346.91 352.46 1
 0 -6 15 6466.78 594.38 1
 0 -6 16 158.46 105.28 1
 0 8 0 2070.83 113.02 1
 0 8 -1 48810.51 664.05 1
 0 -8 1 49870.51 676.65 1
 0 8 2 72133.75 883.01 1
 0 8 -2 71359.85 908.89 1
 0 -8 2 68780.6 881.2 1
 0 8 3 42053.64 1446.13 1
 0 8 -3 44024.69 1530.54 1
 0 -8 3 45467.64 1573.6 1
 0 8 4 14595.53 528.23 1
 0 8 -4 16904.43 641.44 1
 0 -8 -4 13324.4 483 1
 0 -8 4 14310.42 540.43 1
 0 8 5 16129.64 576.45 1
 0 8 -5 15120.59 578.84 1
 0 -8 -5 12943.36 467.16 1
 0 -8 5 16478.12 616.16 1
 0 8 6 96516.96 2333.54 1
 0 8 -6 92795.5 2307.37 1
 0 -8 -6 93181.53 2255.68 1
 0 -8 6 94159.57 2324.13 1
 0 8 7 37547.32 928.5 1
 0 8 -7 34043.35 918.66 1
 0 -8 -7 33848.98 841.81 1
 0 -8 7 33504.68 900.24 1
 0 8 8 35814.83 869.75 1
 0 8 -8 37129.02 981.39 1
 0 -8 8 37177.4 989.7 1
 0 8 -9 12925.06 425.12 1
 0 -8 9 13591.62 433.04 1
 0 8 -10 19234.08 538.12 1
 0 -8 10 18463.03 524.76 1
 0 -8 11 529.2 112.03 1
 0 8 -12 3296.65 333.9 1
 0 -8 12 3249.27 336.33 1
 0 8 -13 17619.23 983.6 1
 0 -8 13 20532.16 2357.82 1
 0 8 -14 542.6 134.79 1
 0 -8 14 631.88 148 1
 0 8 -15 5571.27 447.94 1
 0 -8 15 5036.4 614.6 1
 0 10 0 3750.2 265.77 1
 0 -10 0 3665.53 250.86 1
 0 10 1 10208.01 574.49 1
 0 10 -1 10439.75 594.67 1
 0 -10 1 10656.12 604.03 1
 0 10 2 32713.57 860.13 1
 0 10 -2 30352.85 827.95 1
 0 -10 2 29457.48 801.56 1
 0 10 3 20442.52 569.09 1
 0 10 -3 18451.31 547.38 1
 0 -10 3 19885.69 579.39 1
 0 10 4 47872.04 1214.83 1
 0 10 -4 45668.78 1197.01 1
 0 -10 4 47596.53 1242.23 1
 0 10 5 26083.93 684.89 1
 0 10 -5 24532.24 688.48 1
 0 -10 5 25769.15 719.48 1
 0 10 6 8799.44 473.35 1
 0 10 -6 8109.73 466.85 1
 0 -10 6 8843.56 509.27 1
 0 10 -7 29033.92 760.52 1
 0 -10 7 29500.07 761.84 1
 0 10 -8 4274.12 397.91 1
 0 -10 8 4818.02 426.61 1
 0 10 -9 25149.57 1131.56 1
 0 -10 9 24215.73 1091.16 1
 0 10 -10 4588.84 445.77 1
 0 -10 10 4923.95 536.69 1
 0 10 -11 1147.47 159.71 1
 0 -10 11 1102.7 162.33 1
 0 10 -12 2367.24 311.97 1
 0 -10 12 2691.82 352.78 1
 0 10 -13 3075.77 275.99 1
 0 -10 13 2631.98 254.12 1
 0 12 0 380.24 94.87 1
 0 -12 0 875.43 149.61 1
 0 12 1 9146.43 317.51 1
 0 12 -1 7228.5 675.04 1
 0 -12 1 8359.17 316.83 1
 0 12 2 9344.01 316.38 1
 0 12 -2 9566.21 356.19 1
 0 -12 2 9844.85 352.04 1
 0 12 3 8964.63 306.5 1
 0 12 -3 8626.13 338.98 1
 0 -12 3 9429.27 337.13 1
 0 12 4 34955.57 857.79 1
 0 12 -4 33551.35 878.27 1
 0 -12 4 35443.85 912.08 1
 0 12 5 420.3 89.42 1
 0 12 -5 520.67 168.08 1
 0 -12 5 789.39 120.22 1
 0 12 -6 3119.14 337.11 1
 0 -12 6 2911.93 313.08 1
 0 12 7 3646.81 345.22 1
 0 12 -7 4101.51 405.18 1
 0 -12 7 4888.16 540.93 1
 0 12 -8 10183.88 611.94 1
 0 -12 8 9157.5 552.97 1
 0 12 -9 4523.08 334.65 1
 0 -12 9 5080.36 358.53 1
 0 12 -10 1826.65 281.36 1
 0 -12 10 1497.55 212.7 1
 0 12 -11 5929.47 483.76 1
 0 -12 11 4694.67 389.68 1
 0 12 -12 6481.29 520.25 1
 0 -12 12 5885.56 477.82 1
 0 14 0 925.83 168.49 1
 0 -14 0 840.84 164.07 1
 0 14 1 1206.95 176.05 1
 0 14 -1 1062.64 183.17 1
 0 -14 1 1414.69 206.48 1
 0 -14 -1 849.51 145.1 1
 0 14 2 8025.78 486.47 1
 0 14 -2 7173.64 470.25 1
 0 -14 2 8541.01 533.5 1
 0 14 3 4796.72 320.09 1
 0 14 -3 5678.08 388.73 1
 0 -14 3 5018.85 352.36 1
 0 14 4 2709.75 347.08 1
 0 14 -4 2970.09 247.79 1
 0 -14 4 2545.87 301.09 1
 0 14 5 2168.41 259.45 1
 0 14 -5 2762.28 286.86 1
 0 -14 5 2575.11 302.19 1
 0 14 -6 3825.19 307.5 1
 0 -14 6 2986.93 225.6 1
 0 14 -7 2742.45 443.84 1
 0 -14 7 1942.29 269.05 1
 0 14 -8 3371.37 315.16 1
 0 -14 8 3049.66 288.93 1
 0 14 -9 245.6 130.95 1
 0 -14 9 294.88 127.61 1
 0 16 0 2979.76 300.88 1
 0 -16 0 2210 239.11 1
 0 16 1 4030.16 352.6 1
 0 16 -1 4326.39 384.03 1
 0 -16 1 4479.94 389.1 1
 0 -16 -1 5031.55 436.03 1
 0 16 2 3288.68 300.48 1
 0 16 -2 3567 345.61 1
 0 -16 2 2892.6 291.9 1
 0 -16 -2 3336.99 313.38 1
 0 16 -3 4816.08 410.96 1
 0 -16 3 5586.52 477.95 1
 0 -16 -3 6214.96 510.8 1
 0 16 4 2306 234.18 1
 0 -16 4 2241.88 233.67 1
 -1 1 17 2113.69 523.97 1
 -1 -1 17 2175.64 338.56 1
 -1 1 16 16087.07 1522.22 1
 -1 -1 16 17024.44 2706.99 1
 -1 1 15 3112.55 468.79 1
 -1 -1 15 2934.3 339.81 1
 -1 1 14 100.57 76.39 1
 -1 -1 14 253.97 101.11 1
 1 1 -13 18206.07 471.72 1
 -1 1 13 22135.13 634.38 1
 -1 -1 13 23813.87 1167.87 1
 1 1 -12 50573.58 1252.08 1
 -1 1 12 51189.06 1228.66 1
 -1 1 12 50532.38 1368.55 1
 -1 -1 12 50981.57 1372.03 1
 1 1 -11 10840.77 597.68 1
 -1 -1 11 10340.1 558.64 1
 -1 1 11 11012.29 584.28 1
 -1 1 11 13292.24 949.82 1
 -1 -1 11 11561.83 762.93 1
 1 -1 -10 68736.38 2329.86 1
 1 1 -10 66989.9 2277.03 1
 -1 -1 10 68631.35 2321.29 1
 -1 1 10 71985.08 2419.88 1
 -1 1 10 72021.3 2485.49 1
 -1 -1 10 73431.62 2533.69 1
 1 -1 -9 886.81 124.28 1
 1 1 -9 1085.01 178.74 1
 -1 1 9 1012.45 61.51 1
 -1 -1 9 895.38 66.19 1
 -1 1 9 1267.98 158.75 1
 -1 -1 9 1203.67 168.02 1
 1 -1 -8 30941.22 430.95 1
 1 1 -8 31360.55 487.19 1
 -1 -1 8 31242.41 408.8 1
 -1 1 8 32581.58 515.36 1
 -1 -1 8 30709.04 495.29 1
 1 -1 -7 30861.58 397.28 1
 1 1 -7 29074.85 439.03 1
 -1 1 7 29644.84 359.84 1
 -1 -1 7 30580.02 398.42 1
 -1 1 7 30794.8 469.73 1
 -1 -1 7 30906.6 474.59 1
 1 -1 -6 75955.27 828.53 1
 1 1 -6 72532.76 804.99 1
 -1 1 6 73511.43 758.33 1
 -1 -1 6 74690.89 791.07 1
 -1 1 6 72647.1 923.58 1
 -1 -1 6 73962.85 884.76 1
 1 -1 -6 73994.7 851.31 1
 1 1 -6 73404.96 807.19 1
 1 1 -5 30428.31 399.01 1
 -1 1 5 29630.25 354.01 1
 -1 -1 5 29791.18 360.18 1
 1 -1 -5 32074.21 421.42 1
 -1 -1 5 29763.68 392.25 1
 1 1 -5 30122.17 371.38 1
 -1 1 4 9518.14 182.65 1
 1 1 -4 9392.62 165.31 1
 -1 -1 4 9435.16 151.81 1
 -1 1 4 9775.51 143.2 1
 1 -1 -4 9582.08 167.72 1
 -1 -1 4 9572.63 159.63 1
 1 1 -4 9032.32 147.05 1
 -1 1 3 259461 2525.58 1
 -1 -1 3 254245.5 2490.68 1
 -1 1 3 260677.7 2536.9 1
 1 -1 -3 260826.3 2554.69 1
 -1 -1 3 259646.1 2525.58 1
 1 1 -3 254583.5 2478.61 1
 1 1 -2 912316.6 9490.18 1
 -1 -1 2 999998.6 10396.49 1
 1 1 -1 24964.6 313.96 1
 -1 -1 1 24109 301.96 1
 -1 1 1 24792.61 290.46 1
 1 -1 -1 24972.62 292.7 1
 1 1 0 344850.6 3343.37 1
 -1 -1 0 366449.9 3544.7 1
 -1 1 0 355801 3447.32 1
 1 -1 0 352462.6 3415.49 1
 1 -1 0 339938.3 3284.06 1
 1 1 1 82879.35 844.15 1
 -1 -1 -1 84008.64 865.71 1
 -1 1 -1 82848.64 854.05 1
 1 -1 1 85497.62 874.14 1
 1 1 1 84986.03 848.19 1
 1 -1 1 84176.85 856.53 1
 -1 1 -1 84153.43 855.79 1
 -1 -1 -2 111291.9 1109.13 1
 -1 1 -2 109642.2 1112.43 1
 1 -1 2 112920.7 1140.05 1
 1 1 2 111160.6 1120.54 1
 1 -1 2 107522.6 1093.89 1
 -1 1 -2 110712.5 1120.47 1
 1 -1 3 96105.88 985.69 1
 -1 -1 -3 96472.72 968.88 1
 1 1 3 97196.79 973.99 1
 1 1 3 96630.54 1004.58 1
 -1 -1 -3 98174.85 1011.5 1
 1 -1 3 95407.44 994.87 1
 -1 1 -3 95841.54 996.06 1
 -1 1 -4 131160.4 1325.04 1
 1 -1 4 129763.6 1322.71 1
 -1 -1 -4 128625.6 1275.75 1
 1 1 4 129602.7 1283.41 1
 1 1 4 127097.8 1325.86 1
 -1 -1 -4 129706.4 1333.5 1
 1 -1 4 127923.9 1322.23 1
 -1 1 -4 127102.3 1310.62 1
 -1 1 -5 9166.4 162.65 1
 -1 -1 -5 9229.16 137.94 1
 1 -1 5 9309.54 156.89 1
 1 1 5 9386.51 134.36 1
 1 1 5 9705.39 189.47 1
 -1 -1 -5 9459.29 178.25 1
 1 -1 5 9518.74 194.08 1
 -1 1 -5 9326.25 183.38 1
 -1 1 -6 131758.5 1345.6 1
 -1 -1 -6 132106.3 1312.57 1
 1 -1 6 132294.7 1349.4 1
 1 1 6 135205.4 1342.51 1
 1 1 6 128496.6 1430.18 1
 1 -1 6 130133.4 1389.46 1
 -1 1 -7 30796.08 404.76 1
 -1 -1 -7 31495.52 376.6 1
 1 -1 7 31840.82 414.43 1
 1 1 7 31290.94 375.16 1
 1 1 7 31932.66 515.93 1
 1 -1 7 32693.44 497.79 1
 -1 1 -8 50564.71 614.53 1
 -1 -1 -8 50112.96 570.79 1
 1 -1 8 49940.75 606.69 1
 1 1 8 51359.72 586 1
 1 1 8 52098.32 750.75 1
 1 -1 8 50093.85 711.35 1
 -1 -1 -9 25821.32 878.64 1
 -1 1 -9 28329.8 980.4 1
 1 -1 9 24894.59 863.21 1
 1 1 9 24566.12 837.6 1
 1 1 9 26833.66 967.61 1
 1 -1 9 27808.86 1006.01 1
 -1 -1 -10 15033.31 761.34 1
 -1 1 -10 15223.84 781.73 1
 1 -1 10 13556.4 724.76 1
 1 1 10 15150.56 767.55 1
 1 1 10 15316.28 821.07 1
 1 -1 10 15535.58 498.77 1
 -1 -1 -11 14143.68 716.78 1
 -1 1 -11 14570.85 751.4 1
 1 -1 11 13375.88 715.52 1
 1 1 11 13462.94 753.87 1
 1 -1 11 14606.72 1096.68 1
 -1 -1 -12 10042.71 511.93 1
 -1 1 -12 11097.44 866.48 1
 1 1 12 10171.11 778.32 1
 1 -1 12 9530.71 758.72 1
 -1 1 -13 5755.42 458.19 1
 1 1 13 6130.54 703.52 1
 1 -1 13 5788.93 751.92 1
 1 1 14 1641.55 233.14 1
 1 -1 14 2015.69 278.63 1
 1 1 15 1419.12 254.19 1
 1 -1 15 1306.2 210.27 1
 1 1 16 5046.24 667.06 1
 1 -1 16 5282.85 499.09 1
 1 -1 17 901.09 232.08 1
 -1 3 17 4543.3 395.8 1
 -1 -3 17 3845.53 565.26 1
 -1 3 16 2355.41 463.64 1
 -1 -3 16 2141.89 430.85 1
 -1 3 15 3351.99 521.43 1
 -1 -3 15 3223.97 462.36 1
 1 3 -14 3212.34 380.17 1
 -1 3 14 3622.46 578.51 1
 -1 -3 14 3358.67 521.92 1
 1 3 -13 47373.02 1119.24 1
 -1 3 13 45229.99 1161.6 1
 -1 -3 13 47960.04 1192.8 1
 1 3 -12 46615.46 1241.15 1
 -1 3 12 42475.6 1194.47 1
 -1 -3 12 45122.33 1264.09 1
 1 3 -11 21062.44 585.88 1
 -1 3 11 19179.8 581.33 1
 -1 -3 11 19407.28 707.96 1
 1 3 -10 45474.55 1156.22 1
 -1 3 10 45008.83 1192.01 1
 -1 -3 10 41478.69 1125.44 1
 1 3 -9 28509.16 1005.61 1
 -1 3 9 28887.23 969.62 1
 -1 3 9 29730.11 1184.25 1
 -1 -3 9 30144.61 1074.62 1
 1 3 -8 6035.67 360.73 1
 -1 3 8 5871.86 89.74 1
 -1 3 8 5588.17 89.12 1
 -1 3 8 6246.16 191.78 1
 -1 -3 8 6380.47 363.16 1
 -1 3 7 80727.59 882.52 1
 1 3 -7 74995.64 903.58 1
 -1 3 7 73113.66 797.97 1
 -1 -3 7 77736.96 955.96 1
 -1 3 6 13676.18 191.42 1
 1 3 -6 13447.64 240.75 1
 -1 -3 6 12700.71 218.84 1
 -1 3 6 13868.68 209.32 1
 -1 -3 6 13596.14 239.69 1
 1 3 -5 52984.81 623.37 1
 -1 -3 5 57067.58 658.69 1
 -1 3 5 53401.48 564.28 1
 1 -3 -5 53577.96 566.39 1
 1 -3 -5 51382.45 685.2 1
 -1 -3 5 55654.16 632.28 1
 1 3 -5 55582.78 618.37 1
 -1 -3 4 66334.62 729.25 1
 -1 3 4 67522.01 701.91 1
 1 -3 -4 66186.25 688.48 1
 1 -3 -4 67336.6 824.61 1
 -1 -3 4 64949.97 703.66 1
 1 3 -4 64274.26 693.35 1
 1 3 -3 31772.86 398.53 1
 -1 -3 3 29483.52 376.14 1
 -1 3 3 30624.31 356.71 1
 1 -3 -3 30261.75 352.8 1
 -1 -3 3 31753.42 365.4 1
 1 3 -3 31808.88 360.27 1
 1 -3 -2 446446.2 4325.3 1
 -1 -3 2 469799.8 4902.4 1
 1 3 -2 466973.5 4500.69 1
 1 3 -1 237114.1 2354.08 1
 -1 -3 1 245152 2416.21 1
 -1 -3 1 244241.3 2371.68 1
 1 3 0 29813.17 386.82 1
 -1 -3 0 29446.91 350.75 1
 -1 3 0 28881.11 355.7 1
 1 -3 0 29333.8 359.5 1
 1 3 1 110041.2 1170.04 1
 -1 -3 -1 106399.1 1080.71 1
 -1 3 -1 110787.2 1141.08 1
 1 -3 1 108513.3 1121.6 1
 -1 -3 -1 106887.2 1078.29 1
 1 -3 1 107369.1 1113.97 1
 1 3 2 16078 213.77 1
 -1 -3 -2 16461.26 213.27 1
 -1 3 -2 15606.67 237.33 1
 1 -3 2 16306.16 237.11 1
 -1 -3 -2 15732.73 261.52 1
 1 -3 2 15335.04 237.82 1
 -1 3 -2 15580.37 231.61 1
 1 3 3 80517.89 835.66 1
 -1 -3 -3 80095.56 818.41 1
 -1 3 -3 79403.5 859.83 1
 1 -3 3 79013.46 855.89 1
 1 3 3 79775.62 870.21 1
 -1 -3 -3 80348.22 858.69 1
 1 -3 3 80358.36 873.48 1
 -1 3 -3 79268.82 859.86 1
 1 3 4 58652.62 612.98 1
 -1 -3 -4 59521.42 625 1
 1 -3 4 59541.58 674 1
 1 3 4 59079.39 694 1
 -1 -3 -4 58377.12 713.01 1
 1 -3 4 59317.34 684.13 1
 -1 3 -4 58892.51 673.27 1
 -1 -3 -5 38750.13 415.07 1
 -1 3 -5 38653.44 480.14 1
 1 -3 5 38756.78 478.26 1
 -1 -3 -5 38631.56 413.3 1
 1 3 5 38764.53 504.5 1
 -1 -3 -5 38492.14 503.34 1
 1 -3 5 36665.57 485.97 1
 -1 -3 -6 141971.1 1498.98 1
 -1 3 -6 140260.6 1567.92 1
 1 -3 6 140289.9 1566.5 1
 -1 -3 -6 140788.1 1488.97 1
 1 3 6 140150.4 1598.7 1
 -1 -3 -7 85223.75 901.79 1
 -1 3 -7 87088.36 1025.93 1
 -1 -3 -7 82203 870.71 1
 1 3 7 85067.53 1076.02 1
 1 -3 7 86887.84 1059.56 1
 -1 3 -8 11608.35 431.85 1
 1 3 8 12422.6 484.98 1
 1 -3 8 11921.91 465.53 1
 -1 3 -9 32072.66 1119.62 1
 1 3 9 30982.7 1114.19 1
 1 -3 9 31067.51 1109.29 1
 -1 3 -10 501.64 65.16 1
 1 3 10 441.72 78.86 1
 1 -3 10 782.69 102.45 1
 -1 3 -11 16496.03 458.81 1
 1 3 11 14810.06 460.2 1
 1 -3 11 15116.95 651.85 1
 -1 3 -12 4790 279.86 1
 1 3 12 4547.71 492.19 1
 1 -3 12 4186.35 447.39 1
 -1 3 -13 4318.97 359.15 1
 1 3 13 3959.22 513.24 1
 1 -3 13 4808.73 647.17 1
 -1 3 -14 6432.49 322.48 1
 1 3 14 7787.99 639.28 1
 1 -3 14 6399.51 578.05 1
 1 3 15 86.02 88.06 1
 1 -3 15 207.54 95.58 1
 1 3 16 3343.1 498.81 1
 1 -3 16 3728.33 569.42 1
 1 3 17 5389.18 1042.17 1
 1 -3 17 6658.64 1008.16 1
 -1 -5 16 5334.31 938.98 1
 1 5 -15 9381.82 685.51 1
 -1 -5 15 9763.09 1190.43 1
 1 5 -14 2702.63 550.28 1
 -1 -5 14 3243.97 406.64 1
 1 5 -13 1903.22 335.35 1
 -1 -5 13 1952.92 350.99 1
 1 5 -12 19068.84 515.01 1
 -1 -5 12 21323.59 678.16 1
 1 5 -11 34722.87 937.82 1
 -1 -5 11 38450.07 1634.81 1
 1 5 -10 24638.64 675.11 1
 -1 -5 10 24439.4 699.41 1
 1 5 -9 13328.14 732.22 1
 -1 -5 9 13647.79 749.7 1
 -1 5 8 10185.64 356.85 1
 1 5 -8 10318.1 402.44 1
 -1 5 8 10251.58 352.2 1
 -1 -5 8 10618.83 413.04 1
 1 5 -7 55552.62 1907.31 1
 -1 5 7 59071.82 1985.37 1
 1 -5 -7 56904.58 1914.01 1
 -1 -5 7 56735.26 1939.88 1
 1 5 -6 58845.37 755.63 1
 -1 5 6 59302.02 675.39 1
 1 -5 -6 57802.01 660.69 1
 -1 -5 6 58445.1 732.19 1
 1 5 -5 36370.73 515.99 1
 -1 5 5 37857.45 460.89 1
 1 -5 -5 38411.3 469.36 1
 -1 -5 5 40413.9 538.76 1
 1 5 -4 27082.53 409.07 1
 -1 5 4 25329.46 338.32 1
 1 -5 -4 25384.17 339.16 1
 -1 -5 4 25279.73 357.26 1
 1 5 -4 23994.16 345.08 1
 1 5 -3 78991.74 888.56 1
 -1 5 3 81421.1 869.56 1
 1 -5 -3 81972.43 871.88 1
 -1 -5 3 81724.06 880.11 1
 1 5 -2 16875.72 271.76 1
 -1 -5 2 16333.83 256.72 1
 -1 5 2 16375.64 246.9 1
 1 -5 -2 16794.95 249.29 1
 -1 -5 2 15955.01 239.49 1
 1 5 -1 40373.13 500.87 1
 -1 -5 1 42597.07 511.88 1
 -1 5 1 42180.36 505.93 1
 1 -5 -1 40035.76 484.23 1
 -1 -5 1 40725.82 477.59 1
 1 5 0 22217.32 317.77 1
 -1 -5 0 22749.04 319.75 1
 -1 5 0 22011.24 316.46 1
 1 5 1 64480.83 718.22 1
 -1 -5 -1 65139.81 714.42 1
 -1 5 -1 64941.5 741.69 1
 1 -5 1 63260.12 721.37 1
 1 -5 1 65312.08 751.44 1
 1 5 2 137868.9 1445.18 1
 -1 -5 -2 136697 1391.04 1
 -1 5 -2 136703.2 1434.29 1
 -1 -5 -2 138408.7 1441.54 1
 1 -5 2 137998.7 1455.97 1
 1 5 3 47018.01 579.61 1
 -1 5 -3 43305.22 553.72 1
 -1 -5 -3 45370.83 543.87 1
 1 -5 3 45882.32 590.24 1
 1 5 4 124185 1373.64 1
 -1 -5 -4 123585.2 1344.4 1
 -1 5 -4 126878.8 1452.68 1
 1 -5 4 125662.3 1454.86 1
 1 5 5 20265.91 309.3 1
 -1 -5 -5 18907.97 249.81 1
 -1 5 -5 19082.08 322.6 1
 1 -5 5 20343.27 349.46 1
 1 5 6 7548.68 172.34 1
 -1 -5 -6 7762.18 124.28 1
 -1 5 -6 7381.72 183.59 1
 1 -5 6 7523.87 200.34 1
 -1 5 -7 19618.52 708.15 1
 -1 -5 -7 18726.72 634.81 1
 -1 -5 -7 19752.38 670.07 1
 1 5 7 18866.71 694.53 1
 1 -5 7 19666.78 721.26 1
 -1 5 -8 1812.99 122.4 1
 1 5 8 1897.9 245.7 1
 1 -5 8 1886.95 139.63 1
 -1 5 -9 8895.34 503.78 1
 1 5 9 8889.38 862.26 1
 1 -5 9 8172.83 476.71 1
 -1 5 -10 2834.14 194.5 1
 1 5 10 3026.04 338.28 1
 1 -5 10 3254.06 233.56 1
 -1 5 -11 24671.16 671.52 1
 1 5 11 26250.64 769.98 1
 1 -5 11 26772.75 759.06 1
 -1 5 -12 440.11 82.48 1
 1 5 12 414.48 151.5 1
 1 -5 12 448.1 133.71 1
 -1 5 -13 710.16 116.81 1
 1 5 13 335.12 134.06 1
 1 -5 13 710.34 174.82 1
 -1 5 -14 403.32 87.12 1
 1 5 14 414.15 119.74 1
 1 -5 14 1074.11 253.85 1
 1 5 15 247.51 92.97 1
 1 -5 15 497.36 146.66 1
 1 5 16 1379.87 346.14 1
 1 -5 16 1197.64 304.14 1
 1 7 -15 15594.25 1164.17 1
 -1 -7 15 13965.79 1298.53 1
 1 7 -14 4417.54 594.81 1
 -1 -7 14 4944.39 761.42 1
 1 7 -13 10166.14 603.06 1
 -1 -7 13 10745.61 757.15 1
 1 7 -12 853.3 131.96 1
 -1 -7 12 1185.23 170.88 1
 1 7 -11 21540.83 593.39 1
 -1 -7 11 21880 593.68 1
 1 7 -10 5044.18 310.14 1
 -1 -7 10 5278.84 322.09 1
 1 7 -9 23335.57 654 1
 -1 -7 9 19688.39 560.77 1
 1 7 -8 47821.62 1238.62 1
 -1 7 8 46219.07 1124.54 1
 1 -7 -8 47772.81 1163.91 1
 -1 -7 8 47259.98 1211.55 1
 1 7 -7 28643.45 783.73 1
 -1 7 7 27624.4 694.3 1
 1 -7 -7 23625.87 598.58 1
 -1 -7 7 28566.55 761.24 1
 1 7 -6 11337.27 445.84 1
 -1 7 6 11611.21 419.32 1
 1 -7 -6 11430.95 414.34 1
 -1 -7 6 12447.65 468.69 1
 1 7 -5 15951.52 598.6 1
 -1 7 5 15342.97 547.05 1
 1 -7 -5 15605.35 556.58 1
 -1 -7 5 16130.94 586.79 1
 1 7 -4 22873.14 389.08 1
 -1 7 4 24707.56 358.92 1
 1 -7 -4 23883.98 348.39 1
 -1 -7 4 21828.1 348.83 1
 1 7 -3 575.48 70.82 1
 -1 7 3 898.42 74.86 1
 1 -7 -3 929.63 65.34 1
 -1 -7 3 609.45 78.44 1
 1 7 -2 4132.36 148.3 1
 -1 7 2 3691.15 119.45 1
 -1 -7 2 3742.64 129.49 1
 1 7 -1 53122.03 696.6 1
 -1 7 1 54205.02 693.07 1
 -1 -7 1 54138.03 685.88 1
 1 7 0 177162.2 1973.66 1
 -1 7 0 178030.8 1987.37 1
 -1 7 -1 29005.22 441.11 1
 1 -7 1 29710.46 471.48 1
 1 7 2 33598.94 468.03 1
 -1 7 -2 31986.23 480.07 1
 1 -7 2 33324.59 502.94 1
 1 7 3 7545.26 170.62 1
 -1 -7 -3 6524.86 149.8 1
 -1 7 -3 7080.91 199.21 1
 1 -7 3 7074.81 195.32 1
 1 7 4 1595.92 194.7 1
 -1 -7 -4 1291.27 64.13 1
 -1 7 -4 1747.37 121.7 1
 1 -7 4 1402.73 93.42 1
 1 7 5 47523.67 1622.5 1
 -1 7 -5 47172.42 1637.22 1
 -1 -7 -5 44951.6 1528.28 1
 1 -7 5 45650.9 1588.13 1
 1 7 6 2359.58 164.38 1
 -1 7 -6 2332.27 148.38 1
 -1 -7 -6 2241.19 105.79 1
 1 -7 6 2336.53 150.42 1
 1 7 7 58058.41 1417.13 1
 -1 7 -7 59118.83 1504.59 1
 -1 -7 -7 53055.78 1288.38 1
 1 -7 7 54359.4 1397.83 1
 -1 7 -8 17660.55 523.35 1
 -1 -7 -8 15962.95 399.78 1
 -1 -7 -8 17250.09 431.94 1
 1 -7 8 18222.47 550.97 1
 -1 7 -9 3724.4 252.57 1
 1 -7 9 3580.85 243.79 1
 -1 7 -10 15000.79 439.55 1
 1 -7 10 14753.84 448.29 1
 -1 7 -11 1192.24 161.94 1
 1 -7 11 888.12 130.94 1
 -1 7 -12 3033.89 304.32 1
 1 -7 12 2447.44 273.54 1
 -1 7 -13 708.82 122.62 1
 -1 7 -14 1854.35 255.39 1
 1 -7 14 1709.81 253.38 1
 -1 7 -15 4838.74 393.37 1
 1 -7 15 4354.33 575.82 1
 1 9 -14 1669.06 491.32 1
 -1 -9 14 2092.25 353.73 1
 1 9 -13 4017.3 441.93 1
 -1 -9 13 5212.47 335.06 1
 1 9 -12 2544.95 300.45 1
 -1 -9 12 1865.57 225.55 1
 1 9 -11 4620.7 449.51 1
 -1 -9 11 5019.42 532.45 1
 1 9 -10 2780.47 294.41 1
 -1 -9 10 2497.24 256.61 1
 1 9 -9 28931.12 762.47 1
 -1 -9 9 31499.66 792.78 1
 1 9 -8 33450.33 908.61 1
 -1 9 8 33668.49 834.22 1
 -1 -9 8 33283.53 886.39 1
 1 9 -7 4282.37 289.09 1
 -1 9 7 4505.97 254.57 1
 -1 -9 7 4362.35 267.88 1
 1 9 -6 12879.75 723.56 1
 -1 9 6 7478.29 415.41 1
 -1 -9 6 12792.64 703.76 1
 1 9 -5 17166.28 516.74 1
 -1 9 5 16345.78 456.3 1
 -1 -9 5 16460.37 478.1 1
 1 9 -4 15762.12 479.13 1
 -1 9 4 16689.6 471.04 1
 -1 -9 4 18217.16 516.36 1
 1 9 -3 5749.59 271.88 1
 -1 9 3 6741.54 289.16 1
 -1 -9 3 6714.35 286.78 1
 1 9 -2 217.51 80.37 1
 -1 9 2 262.95 105.77 1
 -1 -9 2 223.43 70.89 1
 1 9 -1 8370.89 352.68 1
 -1 9 1 9347.86 376.63 1
 -1 -9 1 9284.24 370.41 1
 -1 9 0 18285.67 677.66 1
 1 -9 0 20759.67 772.76 1
 1 9 1 24170.9 871.33 1
 -1 9 -1 23436.01 853.35 1
 1 -9 1 23324.34 852.93 1
 1 9 2 25822.5 919.58 1
 -1 9 -2 25041.01 911.46 1
 1 -9 2 25432.03 930.16 1
 1 9 3 61878.34 1544.28 1
 -1 9 -3 62153.71 1585.75 1
 1 -9 3 57952.84 1483.14 1
 1 9 4 3748.18 476.09 1
 -1 9 -4 3210.15 237.68 1
 1 -9 4 3755.6 258.2 1
 1 9 5 5059.33 304.1 1
 -1 9 -5 6279.75 396.32 1
 1 -9 5 5531.81 360.79 1
 1 9 6 6466.25 559.94 1
 -1 9 -6 6790.8 414.85 1
 1 -9 6 7144.97 440.9 1
 1 9 7 1646.94 179.57 1
 -1 9 -7 1814.97 159.65 1
 1 -9 7 2465.66 205.28 1
 -1 9 -8 1780.28 193.43 1
 1 -9 8 2049.64 208.83 1
 -1 9 -9 1797 201.89 1
 1 -9 9 1487.31 180.21 1
 -1 9 -10 6626.35 360.73 1
 1 -9 10 6164.24 347.61 1
 -1 9 -11 4155.19 406.6 1
 1 -9 11 3449.63 350.33 1
 -1 9 -12 344.23 115.9 1
 1 -9 12 214.93 81.25 1
 -1 9 -13 1020.83 180.77 1
 1 -9 13 721.96 141.23 1
 -1 9 -14 2766.32 253.02 1
 1 -9 14 2471.74 246.53 1
 1 11 -13 1323.41 245.11 1
 -1 -11 13 765.26 166.78 1
 1 11 -12 7210.18 564.93 1
 -1 -11 12 6675.56 522.5 1
 1 11 -11 1636.09 243.67 1
 -1 -11 11 1453.84 219.16 1
 1 11 -10 5566.35 389.61 1
 -1 -11 10 4802.36 323.57 1
 1 11 -9 3664.9 374.25 1
 -1 -11 9 3450.29 351.05 1
 1 11 -8 3001.61 318.24 1
 -1 -11 8 2487.39 257.46 1
 1 11 -7 2846.03 274.65 1
 -1 11 7 3372.19 293.49 1
 -1 -11 7 3254.86 292.61 1
 1 11 -6 20710.14 592.44 1
 -1 11 6 19170.31 501.74 1
 -1 -11 6 18835.39 518.92 1
 1 11 -5 2539.55 256.25 1
 -1 11 5 2573.44 248.59 1
 -1 -11 5 2955.79 267.56 1
 1 11 -4 7913.47 476.98 1
 -1 11 4 8174.08 453.49 1
 -1 -11 4 8853.94 493.42 1
 1 11 -3 15513.45 490.14 1
 -1 11 3 16850.12 491.3 1
 -1 -11 3 16581.79 490.59 1
 1 11 -2 8681.76 502.59 1
 -1 11 2 7834.33 448.8 1
 -1 -11 2 9195.02 515.43 1
 -1 11 1 7561.72 436.9 1
 -1 -11 1 7770.94 445.55 1
 1 11 0 9577.99 542.05 1
 -1 11 0 8956.85 518.37 1
 1 -11 0 10017.51 571.74 1
 -1 -11 0 9963.36 556.36 1
 1 11 1 12716.88 400.95 1
 1 -11 1 12648.58 426.64 1
 1 11 2 24719.74 681.64 1
 -1 11 -2 22721.32 655.21 1
 1 -11 2 23603.44 687.32 1
 1 11 3 7649.87 430.28 1
 -1 11 -3 7876.3 462.02 1
 1 -11 3 8446.49 494.03 1
 1 11 4 6137.52 504.51 1
 -1 11 -4 5825.45 372.44 1
 1 -11 4 6619.49 407.66 1
 1 11 5 227.85 75.93 1
 -1 11 -5 315.68 122.14 1
 1 -11 5 210.32 106.26 1
 1 11 6 22563.78 672.25 1
 -1 11 -6 23033.89 642.86 1
 1 -11 6 24076.52 667.49 1
 1 11 7 1284.28 304.1 1
 -1 11 -7 2279.32 261.38 1
 1 -11 7 1680.57 185.3 1
 -1 11 -8 6467.15 383.57 1
 1 -11 8 5526.22 321.68 1
 -1 11 -9 2286.57 291.34 1
 1 -11 9 2138.08 268.64 1
 -1 11 -10 2914.48 252.67 1
 1 -11 10 2858.24 229.92 1
 -1 11 -11 3119.73 224.6 1
 1 -11 11 2764.46 437.34 1
 -1 11 -12 2929.35 301.81 1
 1 -11 12 2329.84 238.32 1
 1 13 -10 7683.28 604.8 1
 -1 -13 10 6866.04 538.86 1
 1 13 -9 4773.18 314.79 1
 -1 -13 9 4997.88 322.02 1
 1 13 -8 11360.81 604.34 1
 -1 -13 8 10377.6 547.58 1
 1 13 -7 2001.59 269.11 1
 -1 -13 7 1578.55 199.56 1
 1 13 -6 176.37 109.25 1
 -1 13 6 111.02 95.98 1
 -1 -13 6 134.92 69.72 1
 1 13 -5 1774.38 218.99 1
 -1 13 5 1605.98 189.06 1
 -1 -13 5 1986.6 223.02 1
 1 13 -4 684.07 147.69 1
 -1 13 4 776.98 128.34 1
 -1 -13 4 955.49 134.46 1
 1 13 -3 2553.72 281.01 1
 -1 13 3 2946.63 309.12 1
 -1 -13 3 1751.49 205.93 1
 1 13 -2 566.94 165.86 1
 -1 13 2 501.78 129.12 1
 -1 -13 2 484.28 118.76 1
 1 13 -1 897.69 161.18 1
 -1 13 1 748.81 116.69 1
 -1 -13 1 561.05 99.99 1
 1 -13 -1 570 153.27 1
 1 13 0 4022.44 405.85 1
 -1 13 0 3300.19 341.35 1
 1 -13 0 2542.83 275.28 1
 -1 -13 0 3561.09 353.89 1
 1 13 1 4063.91 395.38 1
 -1 13 -1 3490.34 376.15 1
 1 -13 1 3943.6 396.19 1
 -1 -13 -1 3949.14 398.55 1
 1 13 2 19656.46 889.39 1
 1 -13 2 22369.86 1029.59 1
 1 13 3 2469.33 276.33 1
 -1 13 -3 3217.48 345.85 1
 1 -13 3 2856.52 306.44 1
 1 13 4 875.87 170.73 1
 -1 13 -4 985.61 194.38 1
 1 -13 4 988.69 148.05 1
 -1 13 -5 3491.61 297.14 1
 1 -13 5 2969.17 236.96 1
 1 13 6 316.26 84.56 1
 -1 13 -6 305.82 130.87 1
 1 -13 6 175.89 85.86 1
 -1 13 -7 1780.28 224.75 1
 1 -13 7 1652.35 218.62 1
 -1 13 -8 767.98 148.54 1
 1 -13 8 258.32 83.82 1
 -1 13 -9 2102.17 237.62 1
 1 -13 9 1621.14 280.53 1
 -1 13 -10 293.58 106.47 1
 1 -13 10 476.62 148.55 1
 1 15 -7 215.26 120.4 1
 -1 -15 7 495.39 133.42 1
 1 15 -6 1551.32 278.49 1
 -1 -15 6 1054.88 204.69 1
 1 15 -5 3730 338.59 1
 -1 15 5 3810.73 326.44 1
 -1 -15 5 4746.63 411.39 1
 1 15 -4 -8.49 117.57 1
 -1 -15 4 329.78 91.19 1
 1 15 -3 247.11 111.96 1
 -1 15 3 430.04 114.01 1
 -1 -15 3 67.01 79.29 1
 1 -15 -3 623.46 170.26 1
 1 15 -2 4466.48 322.94 1
 -1 15 2 5531.15 340.79 1
 -1 -15 2 5795.44 361.91 1
 1 -15 -2 6246.94 402.5 1
 1 15 -1 263.89 145.93 1
 -1 15 1 400.4 97.41 1
 -1 -15 1 381.43 146.06 1
 1 -15 -1 253.09 105.02 1
 1 15 0 759.88 159.7 1
 -1 15 0 537.36 113.35 1
 1 -15 0 584.65 153.89 1
 -1 -15 0 651.76 143.3 1
 1 15 1 7397.54 426.06 1
 -1 15 -1 8088.76 481.34 1
 1 -15 1 7137.02 428.69 1
 -1 -15 -1 7777.14 436.84 1
 1 15 2 9569.92 516.59 1
 -1 15 -2 8550.51 489.62 1
 1 -15 2 8400.22 475.18 1
 -1 -15 -2 8156.32 460.89 1
 1 15 3 7220.58 415.07 1
 1 -15 3 6392.05 386.22 1
 1 15 4 1616.76 402.83 1
 -1 15 -4 3524.53 307.66 1
 1 -15 4 3803.62 277.34 1
 1 15 5 420.61 129.74 1
 -1 15 -5 599.22 168.95 1
 1 -15 5 373.05 135.32 1
 -1 15 -6 883.02 187.49 1
 1 -15 6 571.66 150.47 1
 -2 0 17 116.41 57.64 1
 -2 0 16 1892.29 458.73 1
 -2 0 15 324.56 94.53 1
 -2 0 14 525.03 147.97 1
 -2 0 13 101.83 81.23 1
 2 0 -12 18000.86 486.63 1
 -2 0 12 17698.44 589.77 1
 2 0 -11 45.35 31.42 1
 -2 0 11 115.84 76.66 1
 2 0 -10 9902.84 550.82 1
 -2 0 10 9759.46 601.85 1
 2 0 -9 -0.26 35.49 1
 -2 0 9 66.97 28.42 1
 -2 0 9 162.91 73.36 1
 2 0 -8 77726.96 2661.98 1
 -2 0 8 68850.82 2329.65 1
 -2 0 8 77902.12 2657.69 1
 2 0 -7 -0.52 50.64 1
 -2 0 7 44.84 18.09 1
 -2 0 7 54.49 56.18 1
 2 0 -7 48.29 22.31 1
 2 0 -6 297386 9953.52 1
 -2 0 6 276027.9 2980.64 1
 -2 0 6 277580.9 9287.17 1
 2 0 -6 264009.5 2827.54 1
 2 0 -5 60.38 52.27 1
 -2 0 5 56.46 28.48 1
 2 0 -5 74 42.96 1
 2 0 -4 48529.15 575.4 1
 -2 0 4 46035 576.96 1
 2 0 -4 49255.62 556.54 1
 -2 0 3 70.47 45.71 1
 -2 0 3 -36.69 47.33 1
 2 0 -3 82.01 30.87 1
 -2 0 2 362587 3556.94 1
 -2 0 2 362574.4 3561.35 1
 -2 0 1 61.88 26.37 1
 -2 0 1 225.06 55 1
 2 0 -1 85.13 29.85 1
 -2 0 0 145416.7 1489.07 1
 2 0 0 147558 1502.95 1
 2 0 0 148193.5 1461.41 1
 -2 0 0 145029.7 1429.08 1
 -2 0 -1 206.78 89.27 1
 2 0 1 86.6 53.53 1
 2 0 1 147.47 51.69 1
 -2 0 -1 -4.28 28.04 1
 2 0 2 320808.4 3154.54 1
 2 0 2 330669.9 3232.28 1
 -2 0 -2 325295.9 3178.4 1
 -2 0 -3 251.47 80.14 1
 2 0 3 176.03 60.97 1
 2 0 3 37.95 34.65 1
 -2 0 -3 269.11 37.74 1
 -2 0 -4 24081.16 330.49 1
 2 0 4 24318.76 325.28 1
 2 0 4 26763.71 373.06 1
 -2 0 -4 25167.8 342.19 1
 -2 0 -5 264.26 70.06 1
 2 0 5 45.34 54.66 1
 2 0 5 23.01 48.63 1
 -2 0 -6 271957.2 2917.07 1
 2 0 6 267581.7 2867.95 1
 2 0 6 281847.2 9443.2 1
 -2 0 -7 142.99 70.31 1
 2 0 7 64.15 34.55 1
 2 0 7 30.1 51.23 1
 -2 0 -8 18558.12 655.36 1
 2 0 8 17256.36 610.89 1
 2 0 8 17926.71 712.06 1
 -2 0 -9 82.22 55.46 1
 2 0 9 48.09 35.74 1
 2 0 9 36.77 70.23 1
 -2 0 -10 30554.61 776.91 1
 2 0 10 26311.42 675.2 1
 2 0 10 29942.62 841.42 1
 -2 0 -11 309.03 67.15 1
 2 0 11 95.77 112.25 1
 -2 0 -12 8347.84 237.71 1
 2 0 12 7806.87 626.73 1
 2 0 13 246.95 109.48 1
 2 0 14 15975.12 1514.05 1
 2 0 15 106.07 83.83 1
 2 0 16 3686.13 557.94 1
 -2 -2 17 263.69 107.96 1
 -2 -2 16 142.52 59.22 1
 -2 -2 15 2814.55 479.29 1
 2 2 -14 7946.15 445.78 1
 -2 -2 14 7467.66 502.79 1
 2 2 -13 3660.83 486.54 1
 -2 -2 13 4019.25 620.73 1
 2 2 -12 16584.67 497.15 1
 -2 -2 12 20248.34 895.62 1
 2 2 -11 9346.36 560.39 1
 -2 2 11 8820.54 461.32 1
 -2 -2 11 10776.47 777.38 1
 2 2 -10 28636.55 755.97 1
 -2 2 10 25221.97 638.41 1
 -2 2 10 28518.2 721.08 1
 -2 -2 10 30589.8 838.37 1
 2 2 -9 29059.91 1024.04 1
 -2 2 9 25108.9 865.95 1
 -2 2 9 24310.95 855.88 1
 -2 -2 9 26853.79 1004.91 1
 2 2 -8 1719.95 246.62 1
 -2 2 8 981.91 153.84 1
 -2 2 8 1263.51 79.84 1
 -2 -2 8 1909.62 245.47 1
 2 2 -7 37221.2 525.16 1
 -2 2 7 33912.73 449.83 1
 -2 2 7 35584.36 462.04 1
 -2 -2 7 35446.87 485.98 1
 2 2 -7 34346.79 454.53 1
 -2 2 6 59861.64 732.56 1
 2 2 -6 57852.96 756.85 1
 -2 2 6 62857.09 744.24 1
 -2 -2 6 63762.41 773.02 1
 2 2 -6 59468.65 700.65 1
 -2 2 5 19112.47 315 1
 -2 -2 5 18520.14 289.26 1
 -2 2 5 20075.67 295.38 1
 2 -2 -5 18496.83 308.57 1
 -2 -2 5 19406.44 330.44 1
 2 2 -5 18636.36 255.97 1
 -2 2 4 35666.08 433.38 1
 -2 -2 4 34754.07 455.84 1
 -2 2 4 33611.42 419.36 1
 2 -2 -4 34021.6 464.65 1
 -2 -2 4 34666.32 402.58 1
 2 2 -4 33159.56 370.51 1
 2 2 -3 3331.08 147.77 1
 -2 -2 3 2672.63 276.77 1
 -2 2 3 3176.59 104.18 1
 2 -2 -3 3200.45 101.84 1
 -2 -2 3 3296.21 80.19 1
 2 2 -3 3137.75 56.61 1
 2 2 -2 151444.2 1610.44 1
 -2 -2 2 157462.6 1617.67 1
 -2 2 2 154027.2 1577.5 1
 2 -2 -2 149398.7 1530.55 1
 2 2 -1 153608.8 1626.19 1
 -2 -2 1 158265.3 1613.1 1
 -2 2 1 150279.8 1544.77 1
 2 -2 -1 148353.5 1517.74 1
 2 2 0 9803.78 182.99 1
 -2 -2 0 10052.62 179.93 1
 -2 2 0 9920.58 189.21 1
 2 -2 0 10559.96 189.22 1
 2 2 0 9946.07 133.89 1
 -2 -2 0 10109.63 122.5 1
 2 -2 0 10012.57 169.5 1
 2 2 1 165305.1 1684.38 1
 -2 2 -1 174240 1773.47 1
 2 -2 1 169254.1 1728.12 1
 2 2 1 169671.6 1671.05 1
 -2 -2 -1 173352.4 1699.25 1
 2 -2 1 173072.1 1745.93 1
 -2 2 -1 172544.6 1733.85 1
 -2 -2 -2 253720.2 2513.87 1
 -2 2 -2 251382 2519.25 1
 2 -2 2 255425.8 2551.36 1
 -2 -2 -2 257310.9 2555.36 1
 2 2 2 255786 2515.38 1
 -2 -2 -2 259328.9 2540.75 1
 2 -2 2 258171.9 2567.29 1
 -2 2 -2 253967.1 2525.48 1
 -2 -2 -3 86669.54 953.06 1
 2 -2 3 85143.92 934.95 1
 -2 -2 -3 88533.07 943.82 1
 2 2 3 87655.81 932.89 1
 -2 -2 -3 88739.52 935.53 1
 2 -2 3 87047.21 946.94 1
 -2 2 -3 88600 957.39 1
 -2 -2 -4 52869.08 611.48 1
 -2 2 -4 53919.29 641.64 1
 2 -2 4 52681.64 620.81 1
 -2 -2 -4 54064.19 613.27 1
 2 2 4 54406.81 638.29 1
 -2 -2 -4 52152.82 603.94 1
 2 -2 4 52888.28 638.27 1
 -2 -2 -5 92237.95 1066.86 1
 -2 2 -5 90183.15 1058.67 1
 2 -2 5 87177.82 1019.56 1
 -2 -2 -5 91617.39 1038.57 1
 2 2 5 91857.85 1116.37 1
 2 -2 5 91576.75 1087.66 1
 -2 -2 -6 39816.75 508.82 1
 -2 2 -6 40107.27 537.1 1
 -2 -2 -6 41283.89 515.26 1
 2 2 6 39475.8 654.72 1
 2 -2 6 38996.64 555.64 1
 -2 -2 -7 33065.07 431.27 1
 -2 2 -7 33598.16 473.57 1
 -2 -2 -7 31579.59 410.13 1
 2 2 7 32346.59 512.38 1
 2 -2 7 32165.48 499.16 1
 -2 -2 -8 7284.2 292.85 1
 -2 2 -8 8295.02 325.43 1
 -2 -2 -8 7764.17 288.47 1
 2 2 8 7847.17 352.23 1
 2 -2 8 7888.7 338.7 1
 -2 -2 -9 87242.74 2113.57 1
 -2 2 -9 93550.32 2285.78 1
 -2 -2 -9 90047.24 2172.11 1
 2 2 9 90395.55 2264.21 1
 2 -2 9 91647.8 2281.82 1
 -2 -2 -10 999.85 189.65 1
 -2 2 -10 2162.08 150.34 1
 -2 -2 -10 1909.03 119.56 1
 2 2 10 2446.48 348.37 1
 2 -2 10 2267.09 351.95 1
 -2 2 -11 20297.43 547.14 1
 -2 -2 -11 19930.61 499.42 1
 2 2 11 19286.11 595.26 1
 2 -2 11 20812.45 628.18 1
 -2 2 -12 15489.76 415.86 1
 2 2 12 13815.76 1172.41 1
 2 -2 12 14004.94 722.96 1
 -2 2 -13 16588.81 733.77 1
 2 2 13 18191.8 1331.04 1
 2 -2 13 14476.61 691.82 1
 2 2 14 946.76 183.43 1
 2 -2 14 754.97 179.74 1
 2 2 15 5339.74 625.6 1
 2 -2 15 6526.33 895.28 1
 2 2 16 898.86 282.33 1
 2 -2 16 966.31 216.23 1
 -2 -4 16 6580.48 673.41 1
 2 4 -15 1033.19 227.5 1
 -2 -4 15 1038.21 312.77 1
 2 4 -14 2563.31 491.98 1
 -2 -4 14 3087.54 361.4 1
 2 4 -13 2698.61 346.71 1
 -2 -4 13 2559.19 391.53 1
 2 4 -12 9841.76 566.73 1
 -2 -4 12 9796.41 568.55 1
 2 4 -11 15802.65 638 1
 -2 -4 11 16644.99 651.32 1
 2 4 -10 1543.16 246.89 1
 -2 4 10 1678.4 110.31 1
 -2 -4 10 1566.53 158.98 1
 -2 4 9 7052.14 525.32 1
 2 4 -9 10255.57 897.81 1
 -2 4 9 8542.73 463.65 1
 -2 -4 9 8922.38 563.78 1
 -2 4 8 8487.21 353.8 1
 2 4 -8 9082.13 488.64 1
 -2 4 8 8981.44 329.42 1
 -2 -4 8 8058.86 364.17 1
 -2 4 7 24021.05 838.11 1
 2 4 -7 26310.72 955.54 1
 -2 4 7 24557.35 851.71 1
 -2 -4 7 24248.85 1108.64 1
 2 4 -7 24852.44 864.65 1
 2 4 -6 27283.47 438.58 1
 -2 4 6 26914.57 372.35 1
 2 -4 -6 26564.5 366.3 1
 -2 -4 6 26383.24 371.88 1
 2 4 -6 27326.38 369.37 1
 2 4 -5 118753.8 1398.46 1
 -2 4 5 118480.9 1328.26 1
 2 -4 -5 107870.1 1213.67 1
 -2 -4 5 110729 1224.86 1
 2 4 -5 110123 1214.68 1
 2 4 -4 29290.84 463.31 1
 -2 4 4 28991.77 402.76 1
 2 -4 -4 29713.13 415.39 1
 -2 -4 4 28860.89 358.54 1
 2 4 -4 27778.62 347.03 1
 2 4 -3 86409.51 1039.91 1
 -2 4 3 88816.94 1027.1 1
 2 -4 -3 87978.4 1015.75 1
 -2 -4 3 89271.91 903.72 1
 2 4 -2 8865.14 185.24 1
 -2 4 2 9069.2 182.14 1
 2 -4 -2 8963.31 175.16 1
 -2 -4 2 9006.65 125.17 1
 2 4 -1 4001.73 120.17 1
 -2 -4 1 3972.53 118.16 1
 -2 4 1 3739.09 118.47 1
 2 -4 -1 4100.22 118.96 1
 -2 -4 1 3974.61 72.14 1
 2 4 0 48181.53 603.12 1
 -2 -4 0 48637.68 578.28 1
 -2 4 0 46564.83 577.16 1
 2 -4 0 47370.57 575.22 1
 -2 -4 0 50753.13 563.68 1
 2 -4 0 46448.15 563.26 1
 2 4 1 5319.05 167.46 1
 -2 -4 -1 4654.92 441.41 1
 -2 4 -1 5447.54 152.2 1
 -2 -4 -1 5558.67 130.08 1
 2 -4 1 5301 151.25 1
 2 4 2 11032.61 224.13 1
 -2 -4 -2 10373.42 200.26 1
 -2 4 -2 10802.05 220.59 1
 -2 -4 -2 10146.75 231.92 1
 2 4 3 22302.01 356.19 1
 -2 -4 -3 21122.08 334.35 1
 -2 4 -3 22417.54 358.76 1
 2 4 3 22134.88 381.98 1
 -2 -4 -3 21677.93 372.08 1
 2 -4 3 21957.73 368.24 1
 2 4 4 41844.71 533.48 1
 -2 -4 -4 39877.86 581.43 1
 -2 4 -4 42907.52 581.2 1
 2 4 4 40686.53 541.03 1
 -2 -4 -4 38820.74 578.36 1
 2 -4 4 40837.3 570.2 1
 -2 -4 -5 95081.4 1086.4 1
 -2 4 -5 94237.37 1122.59 1
 -2 -4 -5 94864.44 1074.39 1
 2 -4 5 98901.07 1192.85 1
 -2 4 -6 12335.72 251.39 1
 -2 -4 -6 12215.77 204.63 1
 2 -4 6 13824.66 300.08 1
 -2 -4 -7 23520.97 827.1 1
 -2 4 -7 24694.75 881.5 1
 -2 -4 -7 24491.54 843.92 1
 2 -4 7 24400.47 883.85 1
 -2 -4 -8 21158.49 549.09 1
 -2 4 -8 22200.07 604.16 1
 -2 -4 -8 22253.6 560.98 1
 2 -4 8 23971.16 670.82 1
 -2 -4 -9 44231.91 1077.89 1
 -2 4 -9 48600.6 1240.35 1
 -2 -4 -9 47517.23 1155.06 1
 2 4 9 46063.76 1223.95 1
 2 -4 9 45847.36 1205.07 1
 -2 4 -10 15410.35 450.38 1
 -2 -4 -10 14741.51 364.69 1
 2 4 10 15595.94 508.66 1
 2 -4 10 16488.62 522.41 1
 -2 4 -11 998.64 116.69 1
 2 4 11 860.5 171.68 1
 2 -4 11 693.64 113.5 1
 -2 4 -12 10404.23 327.33 1
 2 4 12 10582.74 897.95 1
 2 -4 12 9789.99 353.59 1
 -2 4 -13 13023.91 606.49 1
 2 4 13 14656.89 1443.83 1
 2 -4 13 15171.06 958.73 1
 -2 4 -14 2608.46 295.23 1
 2 4 14 2753.27 368.31 1
 2 -4 14 2415.27 378.93 1
 2 4 15 5229.92 588.83 1
 2 -4 15 5493.76 765.94 1
 2 4 16 96.33 100.35 1
 2 -4 16 279.47 97.19 1
 -2 -6 16 3144.55 922.53 1
 2 6 -15 6730.04 383.11 1
 -2 -6 15 6389.29 560.22 1
 2 6 -14 388.67 157.17 1
 -2 -6 14 423.3 104.71 1
 2 6 -13 1563.19 243.45 1
 -2 -6 13 1605.97 364.17 1
 2 6 -12 21096.83 1014.26 1
 -2 -6 12 19895.41 1148.17 1
 2 6 -11 19159.39 1247.14 1
 -2 -6 11 14064.93 604 1
 2 6 -10 766.08 201.68 1
 -2 -6 10 795.16 124.68 1
 -2 6 9 6757.9 370.5 1
 2 6 -9 8945.25 788.66 1
 -2 6 9 7961.85 417.51 1
 -2 -6 9 8040.98 519.2 1
 2 6 -8 8900.72 597.72 1
 -2 6 8 9147.81 494.83 1
 -2 -6 8 10647.68 588.06 1
 2 6 -7 10411.1 729.62 1
 -2 6 7 8996.9 490.54 1
 2 -6 -7 8543.5 466.48 1
 -2 -6 7 9587.88 528.36 1
 2 6 -6 7980.82 528.82 1
 -2 6 6 7929.52 306.28 1
 -2 -6 6 8695.31 336.56 1
 2 6 -6 7586.15 291.03 1
 2 6 -5 1113.86 151.1 1
 -2 6 5 963.68 88.96 1
 2 -6 -5 648.3 57.79 1
 -2 -6 5 1124.1 87.75 1
 2 6 -5 975.23 65.87 1
 2 6 -4 54707.32 775.77 1
 -2 -6 4 54132.89 649.81 1
 2 6 -3 8196.55 207.89 1
 -2 6 3 7745.22 184.33 1
 -2 -6 3 8489.9 162.21 1
 2 6 -2 212164.8 2459.61 1
 -2 -6 2 210150 2253.89 1
 2 6 -1 14254.62 306.44 1
 -2 6 1 14639.3 273.96 1
 -2 -6 1 13845.63 218.46 1
 2 6 0 42875.8 617.89 1
 -2 6 0 41569.31 578 1
 2 -6 0 44513.16 622.47 1
 -2 6 -1 64696.36 829.17 1
 -2 -6 -1 60509.3 752.1 1
 2 -6 1 61676.66 806.96 1
 2 6 2 50330.66 713 1
 -2 -6 -2 48282.19 647.61 1
 2 -6 2 52049.92 702.76 1
 2 6 3 12834.33 250.54 1
 -2 6 -3 13463.15 282.07 1
 -2 -6 -3 11763.85 244.71 1
 2 -6 3 13004.24 279.42 1
 2 6 4 179963.2 1998.83 1
 -2 -6 -4 157394.2 8156.5 1
 -2 6 -4 183245.5 9507.86 1
 2 -6 4 189044.3 2152.49 1
 2 6 5 21453.72 760.85 1
 -2 -6 -5 18423.09 646.79 1
 -2 6 -5 20005.39 735.44 1
 2 -6 5 19272.65 719.2 1
 -2 -6 -6 7626.45 286.71 1
 -2 6 -6 8296.64 345 1
 2 -6 6 9350.97 391.78 1
 -2 -6 -7 31154.15 776.25 1
 -2 6 -7 34375.46 914 1
 -2 -6 -7 33789.03 844.12 1
 2 -6 7 37230.9 997.73 1
 -2 -6 -8 7595.3 409.48 1
 -2 6 -8 8961.88 512.78 1
 -2 -6 -8 9097.83 489.33 1
 2 -6 8 9034.31 529.57 1
 -2 6 -9 305.32 99.87 1
 -2 -6 -9 232.77 39.28 1
 2 6 9 100.75 70.19 1
 2 -6 9 280.62 81.49 1
 -2 6 -10 14303.76 422.17 1
 2 6 10 13184.54 733.42 1
 2 -6 10 13369.72 418.86 1
 -2 6 -11 5520.89 464.31 1
 2 -6 11 5257.4 460.06 1
 -2 6 -12 3705.07 365.91 1
 2 -6 12 3806.32 404.55 1
 -2 6 -13 802.54 135.3 1
 2 6 13 1232.39 197.75 1
 2 -6 13 969.26 148.57 1
 -2 6 -14 4794.02 296.48 1
 2 6 14 3213.88 481.74 1
 2 -6 14 3271.26 281.41 1
 2 6 15 2159.65 295.59 1
 2 -6 15 2500.12 319.55 1
 2 8 -14 1131.42 312.93 1
 -2 -8 14 879.34 263.86 1
 2 8 -13 2592.1 493.04 1
 -2 -8 13 1967.01 431.75 1
 2 8 -12 9225.83 732.81 1
 -2 -8 12 9504.61 777.07 1
 2 8 -11 1859.92 328.12 1
 -2 -8 11 1978.22 225.98 1
 2 8 -10 4498.93 403.27 1
 -2 -8 10 5503.8 457.33 1
 2 8 -9 12070.91 423.15 1
 -2 -8 9 14138.17 408.13 1
 2 8 -8 6493.69 594.41 1
 -2 8 8 5933.21 323.73 1
 -2 -8 8 5946.99 342.28 1
 2 8 -7 6376.44 451.37 1
 -2 8 7 6008.29 331.15 1
 -2 -8 7 6369 356.67 1
 2 8 -6 19583.26 582.34 1
 -2 8 6 18748.6 511.71 1
 -2 -8 6 20478.12 562.5 1
 2 8 -5 6659.43 572.13 1
 -2 8 5 7206.69 409.7 1
 -2 -8 5 8088.51 448.7 1
 2 8 -4 7291.84 788.16 1
 -2 8 4 7408.48 421.33 1
 -2 -8 4 6915.56 387.95 1
 2 8 -3 4053.81 395.35 1
 -2 8 3 4199.3 204.28 1
 -2 -8 3 3714.25 168.17 1
 2 8 -2 22387.13 828.32 1
 -2 8 2 23265.59 840.44 1
 -2 -8 2 25583.87 894.91 1
 2 8 -1 5328.8 301.8 1
 -2 -8 1 5650.07 230.7 1
 2 8 0 19503.58 722.19 1
 -2 8 0 19653.45 727.02 1
 2 -8 0 18870.87 703.68 1
 2 8 1 5203.38 617 1
 -2 8 -1 5450.46 252.1 1
 2 -8 1 4665.98 240.11 1
 2 8 2 21644.16 942.62 1
 -2 8 -2 22117.33 813.92 1
 2 -8 2 21586.95 797.2 1
 2 8 3 2510.62 306.4 1
 -2 8 -3 2003.68 172.78 1
 2 -8 3 2220.84 148.58 1
 2 8 4 7866.02 744.53 1
 -2 8 -4 8074.32 473.47 1
 2 -8 4 7059.15 424.31 1
 2 8 5 10658.49 600.79 1
 -2 8 -5 11153.87 632.47 1
 2 -8 5 11317.12 645.38 1
 2 8 6 5948.79 511.58 1
 -2 8 -6 6215.78 386.54 1
 2 -8 6 6251.77 382.71 1
 2 8 7 14160.64 481.05 1
 -2 8 -7 14853.17 463.1 1
 2 -8 7 15173.95 476.6 1
 -2 8 -8 72092.16 1804.94 1
 -2 -8 -8 67313.17 1624.38 1
 2 -8 8 71103.6 1812.24 1
 -2 8 -9 2259.81 226.72 1
 2 -8 9 2037.76 217 1
 -2 8 -10 4777.89 513.48 1
 2 -8 10 4421.77 440.28 1
 -2 8 -11 10707.89 542.76 1
 2 -8 11 10044.69 516.01 1
 -2 8 -12 1078.07 161.1 1
 2 -8 12 1091.44 174.94 1
 -2 8 -13 2306.09 309.51 1
 2 -8 13 3129.83 248.49 1
 -2 8 -14 1887.45 317.6 1
 2 -8 14 1723.4 300.96 1
 2 10 -13 7529.34 807.77 1
 -2 -10 13 6600.73 709.23 1
 2 10 -12 425.52 178.01 1
 -2 -10 12 596.02 118.54 1
 2 10 -11 2169.05 608.61 1
 -2 -10 11 3019.04 229.75 1
 2 10 -10 1188.5 300.48 1
 -2 -10 10 1239.73 168.37 1
 2 10 -9 6061.32 682.25 1
 -2 -10 9 6144.94 317.2 1
 2 10 -8 6717.87 1011.53 1
 -2 10 8 5216.04 431.18 1
 2 10 -7 2960.17 462.65 1
 -2 10 7 2672.54 242.32 1
 -2 -10 7 3167.9 282.22 1
 2 10 -6 664.87 150.93 1
 -2 10 6 263.42 111.67 1
 -2 -10 6 499.14 77.82 1
 2 10 -5 3936.6 631.49 1
 -2 10 5 4328.92 273.56 1
 -2 -10 5 3541.89 222.86 1
 2 10 -4 7205.93 427.78 1
 -2 10 4 6879.02 393.12 1
 -2 -10 4 6933.83 386.52 1
 2 10 -3 6792.92 409.54 1
 -2 10 3 6256.86 362.82 1
 -2 -10 3 6639.7 369.54 1
 2 10 -2 2255.74 308.53 1
 -2 10 2 2038.67 172.04 1
 -2 -10 2 2215.78 161.69 1
 -2 10 1 69766.99 1766.45 1
 -2 -10 1 69850.41 1740.58 1
 2 -10 -1 75150.92 1915.21 1
 2 10 0 20303.25 646.23 1
 2 -10 0 19845.45 592.88 1
 2 10 1 1473.41 260.34 1
 -2 10 -1 1129.9 125.16 1
 2 -10 1 1042.26 125.08 1
 2 10 2 10742.14 598.33 1
 -2 10 -2 9758.38 548.6 1
 2 -10 2 11176.74 904.97 1
 2 10 3 26391.25 786.86 1
 -2 10 -3 26073.25 732.13 1
 2 -10 3 27551.9 773.33 1
 2 10 4 8261.38 464.41 1
 -2 10 -4 7535.85 446.96 1
 2 -10 4 7176.01 432 1
 2 10 5 34899.11 931.3 1
 -2 10 -5 32937.83 899 1
 2 -10 5 34401.32 944.39 1
 2 10 6 1651.69 284.5 1
 -2 10 -6 2424.68 245.17 1
 2 -10 6 2545.65 272.47 1
 2 10 7 587.89 121.14 1
 -2 10 -7 1057.71 164.61 1
 2 -10 7 1392.64 190.11 1
 -2 10 -8 3128.59 327.54 1
 2 -10 8 3201.27 342.27 1
 -2 10 -9 11894.66 595.22 1
 2 -10 9 12883.12 662.8 1
 -2 10 -10 2674.51 318.18 1
 2 -10 10 2296.87 290.22 1
 -2 10 -11 508.96 120.76 1
 2 -10 11 130.4 92.2 1
 -2 10 -12 1785.43 306.06 1
 2 -10 12 1944.62 334.93 1
 2 12 -11 6059.48 718.97 1
 2 12 -10 5289.1 935.6 1
 -2 -12 10 5907.42 336.7 1
 2 12 -9 1684.74 306.33 1
 -2 -12 9 1569.88 212.47 1
 2 12 -8 7814.35 879.03 1
 -2 -12 8 8705.67 512.46 1
 2 12 -7 2669.94 506.54 1
 -2 12 7 2750.16 204 1
 -2 -12 7 2821.1 213.79 1
 2 12 -6 2861.14 559.55 1
 -2 12 6 2316.79 258.93 1
 -2 -12 6 2528.52 260.84 1
 2 12 -5 10402.55 995.94 1
 -2 12 5 10393.63 512.39 1
 -2 -12 5 9896.63 473.53 1
 2 12 -4 7674.31 777.55 1
 -2 12 4 7103.6 376.92 1
 -2 -12 4 6945.27 348.57 1
 2 12 -3 6673.63 888.33 1
 -2 12 3 6270.21 523.18 1
 -2 12 2 668.19 113.36 1
 -2 -12 2 407.35 98.76 1
 2 -12 -2 242.24 109.36 1
 -2 12 1 20364.44 564.58 1
 -2 -12 1 20212.97 548.01 1
 2 -12 -1 21505.94 635.27 1
 2 12 0 6444.62 554.38 1
 -2 12 0 5783.69 491.71 1
 2 -12 0 7786.2 328.01 1
 -2 -12 0 6854.73 564.26 1
 2 12 1 5648.34 695.45 1
 2 -12 1 6986.87 592.93 1
 2 12 2 2804.95 457.26 1
 -2 12 -2 3011.36 307.65 1
 2 -12 2 2730.55 294.76 1
 2 12 3 17093.91 808.98 1
 -2 12 -3 18583.25 867.76 1
 2 -12 3 17823.56 837.68 1
 2 12 4 171.67 69.24 1
 -2 12 -4 315.42 122.3 1
 2 -12 4 262.09 110.14 1
 2 12 5 2446.7 499.39 1
 -2 12 -5 4121.77 444.33 1
 2 -12 5 3749 398.59 1
 2 12 6 1890.61 318.09 1
 -2 12 -6 2371.92 294.09 1
 2 -12 6 2887.92 239.58 1
 -2 12 -7 4145 295.41 1
 2 -12 7 3540.42 299.31 1
 -2 12 -8 3634.01 267.64 1
 2 -12 8 4230.46 296.25 1
 -2 12 -9 5480.95 359.91 1
 2 -12 9 6627.22 411.08 1
 -2 12 -10 1366.79 243.2 1
 2 -12 10 1252.21 263.72 1
 2 14 -8 6100.43 869.62 1
 2 14 -7 763.43 227.2 1
 2 14 -6 149.7 90.99 1
 -2 14 6 206.77 90.47 1
 -2 -14 6 177.23 82.77 1
 2 14 -5 200.14 119.07 1
 -2 -14 5 276.58 100.31 1
 2 14 -4 -38.3 106.76 1
 -2 14 4 225.92 113.8 1
 -2 -14 4 311.78 106.87 1
 -2 14 3 271.22 110.29 1
 2 -14 -3 725.85 148.82 1
 2 14 -2 3219.09 554.79 1
 -2 14 2 3980.76 300.24 1
 -2 -14 2 3800.36 271.99 1
 2 -14 -2 4381.78 346.84 1
 2 14 -1 2848.79 428.95 1
 -2 14 1 3133.73 254.44 1
 -2 -14 1 2110.82 269.7 1
 2 -14 -1 2681.25 339.28 1
 2 14 0 9298.35 1087.14 1
 -2 14 0 8943.15 553.6 1
 2 -14 0 8972.6 563.83 1
 -2 -14 0 9869.16 584.49 1
 2 14 1 4025.52 642.34 1
 -2 14 -1 4603.53 340.32 1
 2 -14 1 5518.89 387.52 1
 -2 -14 -1 5217.42 349.59 1
 2 14 2 5994.91 811.61 1
 -2 14 -2 6693.94 439.22 1
 2 -14 2 7505.41 488.87 1
 2 14 3 917.64 232.21 1
 -2 14 -3 1136.64 209.51 1
 2 -14 3 786.95 161.05 1
 -2 14 -4 9431.98 536.84 1
 2 -14 4 8686.79 508.83 1
 2 14 5 1453.88 378.7 1
 -2 14 -5 1985.67 287.81 1
 2 -14 5 2876.6 481.9 1
 -2 14 -6 1721.62 309.36 1
 2 -14 6 2482.61 262.98 1
 -2 14 -7 2560.53 263.61 1
 2 -14 7 2166.86 235.86 1
 -3 -1 16 203.1 78.51 1
 -3 -1 15 178.38 116.35 1
 -3 -1 14 5219.07 329.55 1
 -3 -1 14 3995.35 657.28 1
 -3 1 13 2084.6 211.6 1
 -3 -1 13 2041.57 343.85 1
 3 1 -12 7118.97 578.81 1
 -3 -1 12 7375.41 449.31 1
 3 1 -11 12050.77 382.31 1
 -3 1 11 12388.3 371.03 1
 -3 -1 11 10776.24 643.25 1
 3 1 -10 2236.91 363.71 1
 -3 1 10 2553.54 178.28 1
 -3 -1 10 2890.76 372.77 1
 3 1 -9 12338.04 753.44 1
 -3 1 9 10268.4 568.04 1
 -3 -1 9 10302.5 576.89 1
 3 1 -8 32966.94 1179.81 1
 -3 1 8 29966.84 1052.23 1
 3 1 -7 2648.59 309.43 1
 -3 1 7 2518.43 146.6 1
 3 1 -7 2050.16 101.85 1
 3 1 -6 3811.38 396.79 1
 -3 1 6 3912.18 140.08 1
 3 -1 -6 3221.86 243.19 1
 3 1 -6 3274.66 153.43 1
 3 1 -5 28098.4 474.73 1
 3 -1 -5 31068.52 420.22 1
 3 1 -5 30116.82 406.24 1
 3 1 -4 116677.6 1369.25 1
 -3 1 4 125023.3 1442.02 1
 3 -1 -4 122608.9 1370.14 1
 3 1 -4 115600.3 1243.28 1
 -3 1 3 74187.61 911.42 1
 -3 -1 3 73457.32 909.4 1
 3 1 -3 68288.32 739.42 1
 -3 1 2 55446.17 717.39 1
 -3 -1 2 54729.67 710.42 1
 3 1 -2 52929.78 576.73 1
 3 -1 -2 53389.98 633.73 1
 -3 -1 1 8646.58 201.78 1
 3 1 -1 9426.69 134.24 1
 3 -1 -1 9908.17 229.59 1
 -3 1 0 386965.7 12943.77 1
 -3 -1 0 414687.9 13866.17 1
 3 1 0 408339.3 13624.05 1
 3 -1 0 398761.1 13316.71 1
 -3 -1 0 386485.9 12895.21 1
 -3 1 -1 45446.69 618.76 1
 -3 -1 -1 45496.41 610.5 1
 3 1 1 46629.4 548.77 1
 3 -1 1 43774.87 543.21 1
 -3 -1 -1 44249.96 521.12 1
 -3 1 -1 45562.6 562.08 1
 -3 1 -2 94433.56 1129.52 1
 -3 -1 -2 91107.71 1081.21 1
 3 1 2 96995.69 1087.31 1
 3 -1 2 92912.68 1065.57 1
 -3 -1 -2 95369.78 1070.13 1
 -3 1 -2 91288.07 1048.41 1
 -3 1 -3 22891.98 370.51 1
 -3 -1 -3 22640.1 358 1
 3 1 3 22291.18 325.7 1
 3 -1 3 22133.41 338.46 1
 -3 -1 -3 21494.4 311.26 1
 -3 1 -4 7146.57 179.32 1
 -3 -1 -4 7340.55 178.2 1
 3 1 4 7671.78 217.03 1
 3 -1 4 7691.19 185.64 1
 -3 -1 -4 6972.17 155.74 1
 -3 1 -5 969.65 82.89 1
 -3 -1 -5 1361.02 81.47 1
 3 1 5 1352.72 223.41 1
 -3 1 -6 7302.92 298.15 1
 -3 -1 -6 7354.55 297.78 1
 3 1 6 7265.94 306.42 1
 -3 1 -7 17556.72 640.4 1
 -3 -1 -7 17493.3 631.26 1
 3 1 7 17024.97 739.94 1
 -3 1 -8 66553.92 1657.72 1
 -3 -1 -8 67526.42 1669.5 1
 3 1 8 66087.92 1691.3 1
 3 -1 8 65433.28 1662.42 1
 -3 1 -9 8508.76 478.61 1
 -3 -1 -9 8647.53 481.78 1
 3 -1 9 9539.08 907.75 1
 -3 1 -10 5315.94 309.75 1
 -3 -1 -10 5238.09 300.16 1
 3 -1 10 5165.98 742.89 1
 -3 1 -11 12624.28 354.64 1
 -3 -1 -11 13337.39 355.14 1
 3 -1 11 12900.72 943.93 1
 -3 1 -12 2401.04 240.64 1
 3 1 12 2727.22 446.96 1
 3 -1 12 2297.25 308.53 1
 3 1 13 678.2 172.98 1
 3 -1 13 188.17 112.43 1
 3 1 14 6512.09 620.84 1
 3 -1 14 6560.94 1077.82 1
 3 1 15 4197.82 708.27 1
 3 -1 15 4754.7 731.67 1
 -3 -3 16 616.54 271.37 1
 -3 -3 15 6122.03 509.45 1
 3 3 -14 633.08 156.09 1
 -3 -3 14 613.05 133.89 1
 3 3 -13 6702.75 653.89 1
 -3 -3 13 7549.49 748.95 1
 3 3 -12 3933.46 408.05 1
 -3 3 12 4661.57 391.3 1
 3 3 -11 12563.49 467.28 1
 -3 -3 11 13635.56 692.85 1
 3 3 -10 26008.53 767.81 1
 -3 3 10 27109.21 702.7 1
 -3 -3 10 24695.25 962.25 1
 3 3 -9 17340.07 544.39 1
 -3 3 9 17453.78 481.49 1
 -3 -3 9 15797.15 602.48 1
 3 3 -8 5629.13 422.14 1
 -3 3 8 5116.93 301.42 1
 -3 -3 8 5937.67 375.94 1
 3 3 -8 5219.58 294.85 1
 3 3 -7 25008.92 907.94 1
 -3 3 7 27321.98 963.34 1
 -3 -3 7 25276.24 894.83 1
 3 3 -7 25878.15 891.65 1
 3 3 -6 23241.5 853.64 1
 -3 3 6 22980.08 819.4 1
 -3 -3 6 20128.68 701.41 1
 3 3 -6 21085.71 724.5 1
 3 3 -5 6742.29 188.23 1
 -3 3 5 7577.31 193.61 1
 3 3 -5 7103.23 115.97 1
 3 3 -4 23264.98 476.9 1
 3 3 -3 59505.31 802.9 1
 -3 3 3 58585.05 749.98 1
 3 3 -2 15783.31 300.13 1
 -3 3 2 18358.12 325.56 1
 3 3 -1 64999.78 1017.85 1
 -3 3 1 65538.42 829.27 1
 3 -3 -1 61514.34 751.58 1
 3 3 0 6317.22 372.93 1
 -3 3 0 6017.74 177.29 1
 -3 -3 0 5752.87 86.27 1
 3 -3 0 5882.01 154.62 1
 -3 3 -1 48099.11 655.7 1
 3 3 1 47843.32 578.63 1
 -3 -3 -1 50039.51 574.05 1
 -3 3 -2 92173.65 1118.17 1
 -3 -3 -2 89357.66 1066.34 1
 3 3 2 87468.14 988.96 1
 -3 -3 -2 86736.68 971.24 1
 -3 3 -3 21550.23 370.24 1
 -3 -3 -3 20757.94 337.67 1
 3 3 3 20363.6 298.89 1
 -3 -3 -3 20522.46 299.01 1
 3 -3 3 19876.49 335.07 1
 -3 3 -4 4003.07 157.35 1
 -3 -3 -4 3421.25 120.44 1
 3 3 4 3400.99 235.35 1
 -3 -3 -4 3300.74 102.64 1
 3 -3 4 3450.52 137.28 1
 -3 3 -5 93451.32 3173.98 1
 -3 -3 -5 93263.5 3154.98 1
 3 3 5 93616.6 3179.72 1
 3 -3 5 95657 4983.62 1
 -3 3 -6 12817.43 492.91 1
 -3 -3 -6 12406.15 460.89 1
 3 3 6 12309.81 517.11 1
 3 -3 6 11739.53 467.9 1
 -3 3 -7 1531.69 128.3 1
 -3 -3 -7 1715.55 131.5 1
 3 3 7 1836.44 269.66 1
 3 -3 7 2348.21 199.7 1
 -3 3 -8 13834.59 761.4 1
 -3 -3 -8 12309.71 665.5 1
 3 3 8 13774.58 780.93 1
 3 -3 8 13921.59 777.61 1
 -3 3 -9 6642.65 378.88 1
 -3 -3 -9 7580.4 410.3 1
 3 3 9 7947.45 881.56 1
 3 -3 9 7693.36 464.39 1
 -3 3 -10 27230.98 734.39 1
 -3 -3 -10 26305.4 675.53 1
 3 3 10 25065.93 812.77 1
 3 -3 10 26402.79 757.8 1
 -3 3 -11 738.76 107.69 1
 3 3 11 860.68 172.73 1
 3 -3 11 926.93 168.62 1
 -3 3 -12 15011.01 681.17 1
 3 3 12 13714.54 1302.42 1
 3 -3 12 15130.49 1437.37 1
 -3 3 -13 2726.61 339.91 1
 3 3 13 2554.29 445.89 1
 3 -3 13 2002.49 405.98 1
 3 3 14 2580.23 431.75 1
 3 -3 14 2010.12 442.84 1
 3 3 15 3855.73 677.62 1
 3 -3 15 3750.61 707.72 1
 3 5 -15 1406.84 414.21 1
 -3 -5 15 952.61 292.1 1
 3 5 -14 984.42 232.63 1
 -3 -5 14 724.14 190.16 1
 3 5 -13 1527.32 362.42 1
 -3 -5 13 1235.62 329.73 1
 3 5 -12 43.72 75.99 1
 -3 -5 12 69.14 66.88 1
 3 5 -11 7962.7 756.38 1
 -3 -5 11 6730.87 676.05 1
 3 5 -10 7928.78 387.61 1
 -3 -5 10 7538.77 374.74 1
 3 5 -9 602.68 85.71 1
 -3 5 9 321.67 56.3 1
 -3 -5 9 271.4 63.87 1
 3 5 -8 4184.95 454.7 1
 -3 5 8 4206.43 256.35 1
 -3 -5 8 4023.38 263.73 1
 3 5 -8 3314.18 198.62 1
 3 5 -7 17868.96 543.23 1
 -3 5 7 17178.1 479.71 1
 -3 -5 7 16806.39 463.7 1
 3 5 -7 16839.24 441.94 1
 3 5 -6 17326.57 661.74 1
 -3 5 6 16896.54 620.4 1
 -3 -5 6 16663.19 588.43 1
 3 5 -6 15148.65 529.51 1
 3 5 -5 11018.31 862.01 1
 -3 5 5 9103.28 360.95 1
 -3 -5 5 9537.12 345.01 1
 3 5 -4 61735.92 2149.39 1
 -3 5 4 62472.73 2139.25 1
 -3 -5 4 55034.35 1844.77 1
 3 5 -3 22961.56 887.42 1
 -3 -5 3 26203.79 878.46 1
 3 5 -2 5273.01 334.66 1
 -3 5 2 5562.18 187.15 1
 -3 -5 2 5782.11 100.04 1
 3 5 -1 38912.78 579.89 1
 -3 5 1 39183.12 569.09 1
 -3 -5 1 38061.32 427.1 1
 -3 -5 1 38059.78 423.96 1
 3 -5 -1 37396.08 540.56 1
 3 5 0 9127.35 262.7 1
 -3 5 0 9893.09 238.94 1
 -3 -5 0 9155.82 155 1
 3 -5 0 10073.8 231.81 1
 3 5 1 22255.14 397.87 1
 -3 5 -1 22104.67 390.11 1
 -3 -5 -1 20675.97 291.8 1
 3 -5 1 20403.61 356.35 1
 3 5 2 54483.82 890.12 1
 -3 5 -2 52837.37 737.9 1
 -3 -5 -2 51732.44 633.54 1
 3 -5 2 54913.26 742.48 1
 3 5 3 15505.5 698.12 1
 -3 5 -3 16601.62 627.23 1
 -3 -5 -3 14199.79 524.42 1
 3 -5 3 13976.87 530.89 1
 -3 5 -4 22186.19 809.98 1
 -3 -5 -4 22177.97 790.87 1
 3 5 4 19569.61 701.37 1
 3 -5 4 21018.26 771.55 1
 -3 5 -5 3886.29 202.56 1
 -3 -5 -5 4105.21 184.69 1
 3 5 5 4575.11 402.71 1
 3 -5 5 3872.13 212.97 1
 -3 5 -6 13074.62 730.66 1
 -3 -5 -6 12916.44 700.22 1
 3 5 6 12633.46 691.12 1
 3 -5 6 13033.18 731.13 1
 -3 5 -7 20259.24 583.75 1
 -3 -5 -7 20030.21 536.39 1
 3 5 7 19580.51 581.79 1
 3 -5 7 19941.06 588.86 1
 -3 5 -8 12873.65 403.17 1
 -3 -5 -8 12706.38 359.48 1
 3 5 8 13693.45 470.3 1
 3 -5 8 12966.47 422.66 1
 -3 5 -9 5636.85 344.34 1
 -3 -5 -9 4711.97 266.74 1
 3 5 9 5360.01 577.9 1
 3 -5 9 4531.49 301.01 1
 -3 5 -10 16515.45 468.13 1
 3 5 10 14921.03 505.37 1
 3 -5 10 15627.21 500.67 1
 -3 5 -11 1670.28 187.45 1
 3 5 11 1430.03 303.4 1
 3 -5 11 1632.72 235.51 1
 -3 5 -12 9963.29 579.3 1
 3 5 12 9264.47 844.62 1
 3 -5 12 9149.5 573.8 1
 -3 5 -13 1625.99 225.73 1
 3 5 13 1597.89 267.01 1
 3 -5 13 1331.12 216.17 1
 -3 5 -14 308.76 99.68 1
 3 5 14 273.97 139.23 1
 3 -5 14 289.06 129.93 1
 3 7 -14 4066.08 568.68 1
 3 7 -13 4708.76 817.61 1
 3 7 -12 3661.16 357 1
 -3 -7 12 2425.83 508.04 1
 3 7 -11 866.25 183.79 1
 -3 -7 11 639.05 157.59 1
 3 7 -10 12596.73 414.57 1
 -3 7 10 11562.95 316.41 1
 -3 -7 10 12431.24 357.69 1
 3 7 -9 3740.18 437.23 1
 -3 -7 9 3105.03 312.32 1
 3 7 -8 14117.65 696.73 1
 -3 7 8 13349.96 389.19 1
 -3 -7 8 12444.18 393.19 1
 3 7 -7 25017.58 729.24 1
 -3 7 7 25490.35 677.76 1
 -3 -7 7 24197.5 624.35 1
 3 7 -6 1636.11 283.24 1
 -3 7 6 1569.17 136.58 1
 -3 -7 6 1642.17 111.7 1
 3 7 -5 10172.63 635.77 1
 -3 7 5 10096.07 563.6 1
 -3 -7 5 9806.72 525.23 1
 3 7 -4 35452.98 960.49 1
 -3 7 4 43052.01 1110.44 1
 -3 -7 4 41385.85 1016.19 1
 3 7 -3 17112.36 519.29 1
 -3 7 3 18215.83 531.65 1
 -3 -7 3 16553.91 422.75 1
 3 7 -2 11478.17 598.06 1
 -3 -7 2 12816.28 450.39 1
 3 7 -1 7871.56 552.76 1
 -3 7 1 9078.93 375.79 1
 -3 -7 1 7147.87 408.87 1
 -3 -7 1 7825.95 285.34 1
 3 -7 -1 8307.33 352.82 1
 3 7 0 11188.7 450.74 1
 -3 7 0 12368.01 489.43 1
 -3 -7 0 10475.34 495.64 1
 3 -7 0 11632.45 462.61 1
 3 7 1 28508.71 1088 1
 -3 7 -1 28318.87 1021.72 1
 -3 -7 -1 27222.22 966.1 1
 3 -7 1 30767.66 1100 1
 3 7 2 3933.21 447.95 1
 -3 7 -2 3056.16 233.39 1
 -3 -7 -2 2084.79 264.9 1
 3 -7 2 2958.42 215.26 1
 3 7 3 40384.01 1145.35 1
 -3 7 -3 43015.51 1128.26 1
 3 -7 3 39509.68 1047.13 1
 3 7 4 399.17 92.63 1
 -3 7 -4 487.88 81.52 1
 3 -7 4 576.16 99.69 1
 3 7 5 28142.42 818.02 1
 -3 7 -5 30121.42 827.91 1
 3 -7 5 29326.23 816.54 1
 -3 7 -6 67042.02 1687.97 1
 -3 -7 -6 68076.16 1667.67 1
 3 -7 6 66321.62 1676.89 1
 -3 7 -7 1511.87 163.8 1
 -3 -7 -7 1432.79 110.83 1
 3 -7 7 1130.45 161.49 1
 -3 7 -8 28622.75 743.38 1
 -3 -7 -8 29075.76 696.26 1
 3 -7 8 31968.87 858.28 1
 -3 7 -9 5651.43 478.95 1
 3 -7 9 4888.29 436.97 1
 -3 7 -10 3715.54 371.43 1
 3 -7 10 3552.92 371.53 1
 -3 7 -11 592.46 119.17 1
 3 -7 11 531.27 167.61 1
 -3 7 -12 624.54 125.52 1
 3 -7 12 302.6 116.79 1
 -3 7 -13 251.16 104.95 1
 3 -7 13 494.22 152.44 1
 -3 7 -14 7516.84 578.18 1
 3 -7 14 7506.1 597.24 1
 3 9 -13 2876.31 612.38 1
 3 9 -12 375.05 106.31 1
 3 9 -11 250.05 66.62 1
 3 9 -10 2570.83 541.56 1
 3 9 -9 5303.94 698.73 1
 -3 9 9 5270.58 273.09 1
 -3 -9 9 5606.09 286.57 1
 3 9 -8 6054.43 801.76 1
 -3 -9 8 7436.46 351.38 1
 3 9 -7 479.24 161.87 1
 -3 9 7 548.33 105.77 1
 -3 -9 7 623.98 79.63 1
 3 9 -6 7064.95 834.22 1
 -3 9 6 5980.23 494.25 1
 -3 -9 6 5424.01 435.59 1
 3 9 -5 6514.43 474.83 1
 -3 9 5 6962.21 398.37 1
 -3 -9 5 7860.49 423.8 1
 3 9 -4 3537.93 452.91 1
 -3 9 4 3065.75 216.57 1
 -3 -9 4 3120.47 184.22 1
 3 9 -3 2823.9 385.04 1
 -3 9 3 2589.38 202.96 1
 -3 -9 3 2865.25 178.78 1
 3 9 -2 10917.71 610.13 1
 -3 9 2 11671.05 386.01 1
 -3 -9 2 10646.04 556.48 1
 3 -9 -2 12675.99 430.6 1
 3 9 -1 990.33 176.78 1
 -3 9 1 585.8 108.22 1
 -3 -9 1 763.96 70.98 1
 3 -9 -1 978.12 125.74 1
 3 9 0 14635.64 499.2 1
 -3 9 0 15112.36 470.54 1
 3 -9 0 15603.82 495.99 1
 3 9 1 20917.71 626.79 1
 -3 9 -1 22974 660.92 1
 3 -9 1 22774.54 670.88 1
 3 9 2 33323.75 887.7 1
 -3 9 -2 34147.25 928.36 1
 3 -9 2 35237.03 958.79 1
 3 9 3 4494.51 287.78 1
 -3 9 -3 3919.63 266.49 1
 3 -9 3 4561.6 303.38 1
 3 9 4 11291.52 920.49 1
 -3 9 -4 12004.38 407.94 1
 3 -9 4 10763 620.33 1
 3 9 5 23004.4 778.77 1
 -3 9 -5 23793.87 647.88 1
 3 -9 5 22831.92 638.81 1
 3 9 6 21724.41 622.67 1
 -3 9 -6 21305.83 606.91 1
 3 -9 6 21538.73 611.25 1
 -3 9 -7 13462.75 435.08 1
 -3 -9 -7 12517.77 351.63 1
 3 -9 7 14001.4 461.96 1
 -3 9 -8 929.15 167 1
 3 -9 8 356.28 113.87 1
 -3 9 -9 910.92 140.87 1
 3 -9 9 1390.87 227.19 1
 -3 9 -10 489.24 123.27 1
 3 -9 10 71.09 85.01 1
 -3 9 -11 653.33 136.11 1
 3 -9 11 740.73 157.99 1
 -3 9 -12 3103.13 292.81 1
 3 -9 12 3067.47 303.06 1
 3 11 -11 2717.97 682.07 1
 3 11 -10 302.92 103.22 1
 3 11 -9 4892.45 317.99 1
 3 11 -8 3646.86 563.57 1
 -3 11 8 3103.17 221.7 1
 3 11 -7 327.58 118.59 1
 3 11 -6 157.17 68.47 1
 -3 11 6 122.38 60.55 1
 3 11 -5 20388.33 1167.93 1
 -3 11 5 21079.27 944.13 1
 -3 -11 5 20198.84 880 1
 3 11 -4 2925.65 464.38 1
 -3 11 4 2614.51 275.2 1
 -3 -11 4 2827.78 270.23 1
 3 11 -3 17004.79 744.73 1
 -3 11 3 18559.73 521.61 1
 -3 -11 3 18351.81 466.99 1
 3 11 -2 26683.6 825.17 1
 -3 11 2 24308.76 653.19 1
 -3 -11 2 26055.28 641.3 1
 3 -11 -2 26564.98 757.56 1
 3 11 -1 1897.39 394.42 1
 -3 11 1 1863.89 223.64 1
 -3 -11 1 1532.39 154.27 1
 3 -11 -1 1278.47 190.25 1
 3 11 0 11066.22 375.57 1
 -3 11 0 12772.87 429.42 1
 3 -11 0 12576.03 453.85 1
 -3 -11 0 11508 331.42 1
 3 11 1 2294.24 478.36 1
 -3 11 -1 2976.78 301.94 1
 3 -11 1 3000.09 306.94 1
 3 11 2 466.15 107.33 1
 -3 11 -2 982.22 190.74 1
 3 -11 2 246.2 123.7 1
 3 11 3 15332.03 723.37 1
 -3 11 -3 16283.28 773.92 1
 3 -11 3 15329.04 733.18 1
 3 11 4 23716.93 1074.15 1
 -3 11 -4 25400.36 1153.46 1
 3 -11 4 22037.27 1010.81 1
 3 11 5 1909.83 433.01 1
 -3 11 -5 2840.86 302.59 1
 3 -11 5 3015.48 323.97 1
 3 11 6 3201.82 446.85 1
 -3 11 -6 3804.6 280.88 1
 3 -11 6 3533.98 275.78 1
 -3 11 -7 11690.08 694.35 1
 3 -11 7 10798.96 641.17 1
 -3 11 -8 1343.87 204.21 1
 3 -11 8 1753.58 249.9 1
 -3 11 -9 2215.72 311.23 1
 3 -11 9 2280.91 332.14 1
 -3 11 -10 3722.09 324.86 1
 3 -11 10 3760.5 335.69 1
 3 13 -8 2548.8 532.6 1
 3 13 -7 313.39 113.2 1
 3 13 -6 728.42 139.06 1
 -3 13 6 722.43 135.05 1
 3 13 -5 884.65 196.26 1
 -3 13 5 808.43 156.98 1
 3 13 -4 1513.39 268.13 1
 -3 13 4 1186.81 177.08 1
 -3 13 3 3257.39 272.84 1
 3 -13 -3 2692.61 351.06 1
 3 13 -2 3788.2 536.06 1
 -3 13 2 4371.37 314.02 1
 3 -13 -2 3832.63 304.9 1
 3 13 -1 2706.68 518.93 1
 -3 13 1 4280.27 315.73 1
 3 -13 -1 3855.12 312.83 1
 3 13 0 1402.57 284.11 1
 -3 13 0 1638.2 234.33 1
 3 -13 0 1813.09 292.66 1
 -3 -13 0 1511.47 188.19 1
 3 13 1 2724.92 558.21 1
 -3 13 -1 2598.15 318.94 1
 3 -13 1 3226.27 265.33 1
 -3 -13 -1 2956.99 207.61 1
 3 13 2 1760.4 313.39 1
 -3 13 -2 2129.86 280.23 1
 3 -13 2 1683.12 252.38 1
 3 13 3 3859 594.84 1
 -3 13 -3 4571.24 346.89 1
 3 -13 3 4283.42 317.08 1
 3 13 4 6187.91 758 1
 -3 13 -4 7192.14 435.34 1
 3 -13 4 8268.63 472.83 1
 3 13 5 2609.57 606.59 1
 -3 13 -5 3357.6 251.38 1
 3 -13 5 5100 355.03 1
 -3 13 -6 5904.86 381.76 1
 3 -13 6 4745.64 317.99 1
 -3 13 -7 548.26 148.68 1
 3 -13 7 397.5 140.23 1
 -3 13 -8 979.16 198.58 1
 3 -13 8 842.58 177.35 1
 3 15 -3 2996.95 495.11 1
 -3 15 3 3389.92 303.74 1
 3 -15 -3 3905.1 360.24 1
 3 15 -2 529.03 161.61 1
 -3 15 2 704.59 177.73 1
 3 -15 -2 706.15 179.39 1
 3 15 -1 4428.43 989.12 1
 -3 15 1 6612.78 549.49 1
 3 -15 -1 6042.68 495.23 1
 3 15 0 323.66 163.92 1
 -3 15 0 220.71 128.06 1
 3 15 1 3739.05 987.83 1
 -3 15 -1 6399.85 531.12 1
 3 -15 1 5222.92 446.82 1
 3 15 2 1083.39 262.96 1
 -3 15 -2 1838.94 319.86 1
 3 -15 2 2307.92 249.84 1
 -4 0 13 246.39 102.49 1
 -4 0 12 14715.91 673.58 1
 -4 0 11 107.8 63.24 1
 -4 0 10 22592.85 594.04 1
 -4 0 9 103.09 72.32 1
 -4 0 8 111326 2740.51 1
 -4 0 7 152.8 87.08 1
 4 0 -7 42.31 28.66 1
 -4 0 6 41836.51 1096.39 1
 4 0 -6 39010.48 1000.96 1
 -4 0 5 4.95 86.62 1
 4 0 -5 54.14 24.3 1
 -4 0 4 48329.56 1683.03 1
 4 0 -4 48361.35 1648.9 1
 -4 0 3 -6.26 81.03 1
 4 0 -3 147.34 42.54 1
 -4 0 2 88421.27 3014.7 1
 4 0 -2 84615.57 2841.43 1
 -4 0 1 177.7 97.5 1
 4 0 -1 160.93 45.73 1
 -4 0 0 176.5 67.78 1
 -4 0 -1 106.66 70.55 1
 4 0 1 39.9 31.74 1
 -4 0 -1 199.63 52.21 1
 -4 0 -2 59593.71 2055.24 1
 4 0 2 55358.69 1882.66 1
 -4 0 -2 48186.92 1641.2 1
 -4 0 -3 213.25 98.72 1
 4 0 3 202 67.63 1
 -4 0 -4 60770.94 2091.81 1
 4 0 4 63776 2179.83 1
 -4 0 -5 297.15 109.85 1
 4 0 5 37.18 50.25 1
 -4 0 -6 147863.5 3602.25 1
 4 0 6 152953 7662.13 1
 -4 0 -7 384.81 100.68 1
 4 0 7 87.55 78.74 1
 -4 0 -8 158092.3 12095.64 1
 4 0 8 157294.9 3882.94 1
 -4 0 -9 166.35 64.68 1
 4 0 9 90.64 131.7 1
 4 0 10 14712.48 458.81 1
 -4 0 -11 125.12 71.54 1
 4 0 11 45.92 54.13 1
 -4 0 -12 3193.53 214.48 1
 4 0 12 3710.17 455.55 1
 4 0 13 281.22 126.48 1
 4 0 14 1177.19 389.16 1
 -4 -2 14 965.95 155.58 1
 -4 -2 13 982.24 149.71 1
 -4 2 12 2477.16 256.91 1
 -4 -2 12 2047.94 239.16 1
 -4 2 11 7119.84 367.91 1
 4 2 -10 38941.65 960.3 1
 -4 2 10 33907.72 832.46 1
 4 2 -9 11410.55 380.45 1
 -4 2 9 12541.27 386.62 1
 4 2 -8 12391.55 405.28 1
 -4 2 8 14340.31 431.62 1
 4 2 -7 10541.04 600.58 1
 -4 2 7 10880.41 611.59 1
 4 2 -7 9145.9 489.26 1
 4 2 -6 2856.47 210.65 1
 -4 2 6 2905.15 207.94 1
 4 2 -6 2490.21 143.27 1
 -4 2 5 68777.77 2363.81 1
 -4 -2 5 64930.41 2241.11 1
 4 2 -5 71993.8 2409.53 1
 -4 2 4 51698.2 1793.1 1
 -4 -2 4 52515.15 1824.84 1
 -4 2 3 18231.71 678.41 1
 -4 -2 3 19513.61 730.26 1
 4 -2 -3 17430 620.86 1
 -4 2 2 10666.55 427.76 1
 -4 -2 2 9487.21 386.34 1
 4 -2 -2 10101.37 376.63 1
 -4 2 1 4580.51 231.31 1
 -4 -2 1 4412.73 225.86 1
 4 2 -1 3882.1 134.24 1
 4 -2 -1 3874.83 169.85 1
 -4 2 0 13788.53 537.68 1
 -4 -2 0 13839.3 530.78 1
 4 2 0 13350.38 469.97 1
 4 -2 0 13649.06 497.98 1
 -4 2 -1 1962.03 152.57 1
 -4 -2 -1 1597.7 122.27 1
 4 2 1 1781.61 144.59 1
 4 -2 1 1409.51 91.05 1
 -4 -2 -1 1536.04 78.09 1
 -4 2 -2 7699.96 335.95 1
 -4 -2 -2 7716.93 327.04 1
 4 2 2 7553.95 294.51 1
 4 -2 2 7742.13 309.54 1
 -4 -2 -2 7073.88 266.8 1
 -4 2 -3 4448.67 223.19 1
 -4 -2 -3 4075.15 197.34 1
 4 2 3 4645.99 398.37 1
 4 -2 3 5385.51 251.83 1
 -4 -2 -3 4105.7 176.99 1
 -4 2 -4 3342.3 190.49 1
 -4 -2 -4 3639.51 184.49 1
 4 2 4 3568.69 182.98 1
 4 -2 4 3797.39 197.14 1
 -4 2 -5 2625.88 194.43 1
 -4 -2 -5 2583.54 181.49 1
 4 2 5 2528.83 303.37 1
 4 -2 5 2597.05 193.26 1
 -4 2 -6 67278.78 1700.57 1
 -4 -2 -6 73244.84 1836.11 1
 4 2 6 68243.12 1744.6 1
 4 -2 6 65411.14 1649.48 1
 -4 2 -7 84283.28 2079.15 1
 -4 -2 -7 86437.15 2114.26 1
 4 2 7 84472.53 2077.56 1
 4 -2 7 82221.32 2037.26 1
 -4 2 -8 24037.3 671.97 1
 -4 -2 -8 26467.63 708.14 1
 4 2 8 23624.25 757.76 1
 4 -2 8 25938.32 732.96 1
 -4 2 -9 21475.68 571.99 1
 -4 -2 -9 20831.79 543.38 1
 4 2 9 21325.19 621.35 1
 4 -2 9 20427.89 579.56 1
 -4 2 -10 2126.22 228.24 1
 -4 -2 -10 2158.51 226.05 1
 4 2 10 2067.79 335.4 1
 4 -2 10 1916.17 306.43 1
 -4 2 -11 14764.75 676.87 1
 -4 -2 -11 15703.02 707.01 1
 4 2 11 14973.4 732.47 1
 4 -2 11 15988.9 1497.34 1
 -4 2 -12 9578.2 555.4 1
 4 2 12 9227.68 1252.18 1
 4 -2 12 10660.63 640.44 1
 4 2 13 2286.5 487.72 1
 4 -2 13 2822.04 634.76 1
 4 2 14 1640.32 396.99 1
 4 -2 14 1203.32 376.35 1
 4 4 -14 1589.45 352.6 1
 4 4 -13 10352.52 544.96 1
 4 4 -12 16160.68 909.1 1
 4 4 -11 4616.08 799.94 1
 -4 4 11 5528.43 296.56 1
 4 4 -10 52355.07 1419.4 1
 -4 4 10 50102.28 1179.45 1
 4 4 -9 10815.36 844.01 1
 -4 4 9 10655.74 335.7 1
 4 4 -8 507.19 75.61 1
 -4 4 8 460.65 79.16 1
 4 4 -7 943.16 119.55 1
 -4 4 7 840.75 98.93 1
 4 4 -7 786.44 55.11 1
 4 4 -6 7667.3 797.15 1
 -4 4 6 7110.88 423.87 1
 4 4 -5 9878.88 572.33 1
 -4 4 5 9056.44 522.27 1
 4 4 -4 23465.6 672.44 1
 -4 4 4 21940.7 626.01 1
 4 4 -3 53737.6 1881.42 1
 -4 4 3 50644.58 1761.85 1
 4 -4 -3 52123.13 1795.2 1
 4 4 -2 11655.36 556.88 1
 -4 4 2 12245.25 485.27 1
 4 -4 -2 12117.83 461.83 1
 4 4 -1 9482.97 533.24 1
 -4 4 1 9691.54 400.86 1
 4 -4 -1 11001.12 426.11 1
 -4 4 0 19530.72 731.55 1
 -4 -4 0 19612.88 725.1 1
 4 -4 0 19771.18 720.62 1
 -4 -4 0 19915.22 668.2 1
 -4 4 -1 22640.41 834.28 1
 -4 -4 -1 25459.18 923.03 1
 -4 -4 -1 26155.76 890.31 1
 4 -4 1 24912.91 890.97 1
 -4 4 -2 38542.34 1363.28 1
 -4 -4 -2 38362.3 1348.51 1
 4 4 2 38030.42 1299.05 1
 -4 -4 -2 35586.88 1212.45 1
 4 -4 2 38028.59 1330.65 1
 -4 4 -3 87157.42 2176.33 1
 -4 -4 -3 91822.61 2268.69 1
 4 4 3 86403.79 2112.19 1
 -4 -4 -3 89233.95 2167.27 1
 4 -4 3 87369.59 2161.25 1
 -4 4 -4 47014.07 1231.17 1
 -4 -4 -4 44741.81 1153.73 1
 4 4 4 41960.15 1068.43 1
 4 -4 4 44254.66 1149.46 1
 -4 4 -5 31286.44 859.68 1
 -4 -4 -5 30296.41 809.48 1
 4 4 5 29826.59 799.35 1
 4 -4 5 34953.05 962.41 1
 -4 4 -6 44126.19 1152.95 1
 -4 -4 -6 43217.94 1101.17 1
 4 4 6 40038.02 1088.61 1
 4 -4 6 44897.92 1179.12 1
 -4 4 -7 87751.39 2172.09 1
 -4 -4 -7 92811.29 2259.91 1
 4 4 7 88692.57 2227.08 1
 4 -4 7 88884.14 2210.89 1
 -4 4 -8 9002.74 308.9 1
 -4 -4 -8 9353.45 293.81 1
 4 4 8 9521.93 351.66 1
 4 -4 8 8859.03 326.51 1
 -4 4 -9 6171.89 519.55 1
 -4 -4 -9 5603.9 459.92 1
 4 4 9 5022.02 706.87 1
 -4 4 -10 6384.66 337.41 1
 -4 -4 -10 5699.31 285.19 1
 4 4 10 5900.58 656.74 1
 -4 4 -11 16013.69 896.94 1
 4 4 11 12836.53 1342.44 1
 -4 4 -12 14780.34 733.97 1
 4 4 12 14831.04 1300.89 1
 4 -4 12 15240.81 776.5 1
 -4 4 -13 14165.05 1022.58 1
 4 4 13 16471.76 1218.53 1
 4 -4 13 12731.16 1640.56 1
 4 4 14 2713.61 630.72 1
 4 -4 14 3400.04 688.16 1
 4 6 -14 7408.24 977.23 1
 4 6 -13 6469.6 918.95 1
 4 6 -12 1889.18 339.24 1
 4 6 -11 2997.71 384.38 1
 4 6 -10 6200.62 432.47 1
 -4 6 10 5406.76 297.06 1
 4 6 -9 7886.17 434.99 1
 -4 6 9 7905.84 284.95 1
 4 6 -8 127.55 81.45 1
 -4 6 8 70.55 59.25 1
 4 6 -7 20217.42 616.43 1
 -4 6 7 18155.82 527.9 1
 4 6 -6 11734.89 1026.32 1
 -4 6 6 10400.7 569.34 1
 4 6 -5 1992.81 198.19 1
 -4 6 5 1709.92 151.93 1
 4 6 -4 31646.28 909.76 1
 -4 6 4 32378.16 877.34 1
 4 6 -3 24877.88 720.77 1
 -4 6 3 23472.95 678.57 1
 4 -6 -3 24602.48 688.08 1
 4 6 -2 28284.67 805.13 1
 -4 6 2 24962.79 706.33 1
 4 -6 -2 25710.92 712.48 1
 4 6 -1 17964.37 688.2 1
 -4 6 1 17563.49 529.83 1
 4 -6 -1 17786.18 529.83 1
 4 6 0 10927.39 623.42 1
 -4 6 0 10231.32 591.72 1
 -4 -6 0 10263.4 538.52 1
 4 -6 0 10207.98 582.55 1
 -4 6 -1 19775.34 579.79 1
 -4 -6 -1 18730.23 474.42 1
 4 -6 1 19702.48 577.39 1
 4 6 2 20433.44 601.85 1
 -4 6 -2 16093.67 501.63 1
 -4 -6 -2 17406.02 453.73 1
 4 -6 2 18754.88 559.16 1
 -4 6 -3 15779.37 495.95 1
 -4 -6 -3 16554.49 491.11 1
 4 -6 3 17303.45 537.47 1
 -4 6 -4 34942.35 941.87 1
 -4 -6 -4 33367.72 881.4 1
 -4 6 -5 17056.07 526.15 1
 -4 -6 -5 16822.91 483.06 1
 -4 6 -6 2794.06 221.46 1
 -4 -6 -6 2733.7 186.85 1
 4 -6 6 2249.52 183.53 1
 -4 6 -7 9894.2 339.94 1
 -4 -6 -7 10551.09 317.44 1
 4 6 7 9497.51 346.12 1
 4 -6 7 10979.39 391.48 1
 -4 6 -8 10658.28 358.74 1
 -4 -6 -8 10808.87 323.13 1
 4 6 8 10136.31 442.84 1
 4 -6 8 10292.93 379.49 1
 -4 6 -9 12875.5 617.47 1
 -4 -6 -9 14776.94 668.32 1
 4 6 9 13332.23 640.42 1
 4 -6 9 12552.37 615.63 1
 -4 6 -10 155.7 73.04 1
 4 6 10 16.98 88.65 1
 4 -6 10 238.11 94.11 1
 -4 6 -11 2198.97 293.68 1
 4 6 11 1717.68 421.93 1
 4 -6 11 990.09 169.81 1
 -4 6 -12 2907.47 456.88 1
 4 6 12 2098.41 566.1 1
 4 -6 12 3111.5 263.97 1
 -4 6 -13 1008.29 185.5 1
 4 6 13 890.11 276.24 1
 4 -6 13 1367.93 251.05 1
 4 8 -13 1018.75 327.54 1
 4 8 -12 260.87 115.24 1
 4 8 -11 3846.24 357.97 1
 4 8 -10 2329.61 360.85 1
 4 8 -9 9841.6 599.33 1
 -4 8 9 8449.14 497.01 1
 4 8 -8 2304.82 469.28 1
 -4 8 8 2230.76 235.5 1
 4 8 -7 15976.32 1243.11 1
 -4 8 7 14373.97 664.71 1
 4 8 -6 1575.9 220.36 1
 -4 8 6 1472.42 173.95 1
 4 8 -5 7497.18 737.1 1
 -4 8 5 6870.22 565.69 1
 4 8 -4 8412.24 636.17 1
 -4 8 4 6401.37 536.33 1
 4 8 -3 5751.78 636.02 1
 -4 8 3 6439.27 388.91 1
 4 -8 -3 6431.57 396.07 1
 4 8 -2 9896.56 726.13 1
 -4 8 2 10447.84 587.07 1
 4 -8 -2 10939.7 617.39 1
 4 8 -1 11323.35 909.53 1
 -4 8 1 11668.29 397.93 1
 -4 -8 1 10461.63 533.34 1
 4 -8 -1 11712.89 401.56 1
 -4 8 0 60703.69 1546.52 1
 -4 -8 0 56030.81 1345.38 1
 4 8 1 9225.01 682.85 1
 -4 8 -1 7898.82 467.38 1
 4 8 2 37875.64 1029.03 1
 -4 8 -2 34075.62 938.71 1
 4 8 3 17412.01 537.04 1
 -4 8 -3 15587.94 485.47 1
 4 -8 3 17947.09 554.34 1
 4 8 4 7578.1 294.86 1
 -4 8 -4 7471.49 290.3 1
 4 -8 4 7153.18 608.14 1
 -4 8 -5 19620.58 574.68 1
 -4 -8 -5 20936.18 562.18 1
 4 -8 5 18603.74 553.24 1
 -4 8 -6 7354.06 415.09 1
 -4 -8 -6 6725.7 341.17 1
 4 -8 6 5613.69 325.63 1
 -4 8 -7 5135.48 304.18 1
 -4 -8 -7 4984.15 523.8 1
 4 -8 7 5810.93 340.68 1
 -4 8 -8 3373.79 263.12 1
 -4 -8 -8 3649.85 235.66 1
 4 -8 8 3745.26 321.54 1
 -4 8 -9 21303.65 2442.1 1
 4 -8 9 18541.83 1060.1 1
 -4 8 -10 1199.12 230.75 1
 4 -8 10 168.47 127.29 1
 -4 8 -11 4805.33 395.51 1
 4 -8 11 5741.01 474.13 1
 -4 8 -12 4004.67 355.6 1
 4 -8 12 4925.97 420.02 1
 4 10 -11 1462.36 460.36 1
 4 10 -10 99.7 86.16 1
 4 10 -9 224.76 99.08 1
 4 10 -8 2755.76 674.16 1
 -4 10 8 2589.76 305.32 1
 4 10 -7 5929.65 606.35 1
 -4 10 7 6182.89 383.29 1
 4 10 -6 5824.82 584.14 1
 -4 10 6 5030.27 333.5 1
 4 10 -5 8766.05 465.24 1
 -4 10 5 9094.6 452.66 1
 4 10 -4 7862.52 883.91 1
 -4 10 4 7203.87 382.98 1
 4 -10 -4 7887.31 435.04 1
 4 10 -3 17509.03 832.69 1
 -4 10 3 16939.91 790.25 1
 4 10 -2 3961.1 627.11 1
 -4 10 2 4132.15 418.83 1
 4 10 -1 8130.45 323.17 1
 -4 10 1 8565.87 335.64 1
 4 -10 -1 7724.57 352.7 1
 4 10 0 1932.41 352.44 1
 -4 10 0 1806.11 213.94 1
 4 -10 0 2047.48 233.6 1
 4 10 1 18531.11 877.53 1
 -4 10 -1 18967.9 878.08 1
 4 -10 1 19050.77 887.04 1
 4 10 2 7199.26 765.39 1
 -4 10 -2 6726.45 379.76 1
 4 -10 2 7888.91 431.79 1
 4 10 3 25128.29 1204.53 1
 -4 10 -3 25241.38 1143.08 1
 4 -10 3 23027.9 1051.92 1
 4 10 4 6172.2 345.36 1
 -4 10 -4 5194.86 330.41 1
 4 -10 4 5780.56 357.85 1
 4 10 5 843.7 137.4 1
 -4 10 -5 1096.07 160.74 1
 4 -10 5 1158.69 179.5 1
 -4 10 -6 3509.94 279.88 1
 -4 -10 -6 3558.78 250.73 1
 4 -10 6 3126.29 284.52 1
 -4 10 -7 583.09 174.66 1
 4 -10 7 272.86 170.91 1
 -4 10 -8 134.22 97.69 1
 4 -10 8 493.28 183.09 1
 -4 10 -9 701.19 144.92 1
 4 -10 9 539.1 179.46 1
 -4 10 -10 9964.5 760.21 1
 4 -10 10 8983.77 697.82 1
 4 12 -8 10102.21 952.33 1
 4 12 -7 2569.08 474.59 1
 -4 12 7 2683.66 251.74 1
 4 12 -6 14257.26 1277.99 1
 4 12 -5 1627.9 285.97 1
 -4 12 5 1355.96 208.19 1
 4 12 -4 5148.48 960.04 1
 -4 12 4 5664.08 347.17 1
 4 -12 -4 5696.97 381.37 1
 4 12 -3 671.63 148.43 1
 -4 12 3 546.15 120.79 1
 4 12 -2 6191.13 784.54 1
 -4 12 2 6198.66 414.23 1
 4 -12 -2 6854.97 453.31 1
 4 12 -1 2982.75 502.09 1
 -4 12 1 3465.82 272.79 1
 4 -12 -1 3545.28 319.38 1
 4 12 0 8075.17 579.86 1
 -4 12 0 8200.42 514.77 1
 4 -12 0 8643.13 552.02 1
 4 12 1 926.37 186.6 1
 4 -12 1 765.8 210.3 1
 4 12 2 3615.34 626.08 1
 -4 12 -2 4329.43 318.63 1
 4 -12 2 5811.59 437.8 1
 4 12 3 2388.49 628.65 1
 -4 12 -3 2402.52 333.7 1
 4 -12 3 2761.66 452.01 1
 4 12 4 11235.08 587 1
 -4 12 -4 12507.26 672.95 1
 4 -12 4 10488.03 577.01 1
 4 12 5 497.15 155.37 1
 -4 12 -5 1006.05 178.53 1
 4 -12 5 1204.44 214.69 1
 -4 12 -6 144.43 79.44 1
 4 -12 6 259.1 145.5 1
 -4 12 -7 275.5 122.01 1
 4 -12 7 160.26 95.89 1
 4 14 -3 356.89 187.54 1
 -4 14 3 510.79 143.99 1
 4 14 -2 3071.43 637.25 1
 -4 14 2 4321.84 391.58 1
 4 -14 -2 4601.58 437.48 1
 4 14 -1 2272.79 544.82 1
 -4 14 1 2026.7 354.87 1
 4 -14 -1 2488.06 279.23 1
 -4 14 0 523.41 166.21 1
 4 -14 0 319.23 122.59 1
 4 14 1 618.07 247.38 1
 -4 14 -1 693.73 184.95 1
 4 -14 1 777.57 171.83 1
 4 14 2 789.58 200.56 1
 -4 14 -2 646.98 185.29 1
 4 -14 2 604.48 157.8 1
 -5 1 13 326.05 118.33 1
 -5 -1 13 605.42 150.62 1
 -5 -1 12 1472.08 218.7 1
 -5 1 11 1682.07 223.11 1
 -5 -1 11 1651.47 216.67 1
 -5 1 10 15781.35 728.17 1
 -5 -1 10 15331.72 718.28 1
 -5 1 9 8187.22 422.01 1
 -5 -1 9 9873.61 495.71 1
 -5 1 8 5550.64 470.62 1
 -5 -1 8 7513.95 304.09 1
 -5 1 7 1450.29 163.41 1
 -5 -1 7 1281 162.79 1
 -5 1 6 100126.6 2470.17 1
 -5 -1 5 5075.19 319.04 1
 5 -1 -5 4479.9 251.31 1
 -5 1 4 39884.76 1069.18 1
 -5 -1 4 42585.67 1147.15 1
 5 -1 -4 44438.95 1107.49 1
 -5 1 3 3182.02 233.33 1
 -5 -1 3 2845.47 217.65 1
 5 1 -3 2645.17 144.21 1
 5 -1 -3 2721.73 170.15 1
 -5 1 2 34452.15 939.52 1
 -5 -1 2 34863.35 948.22 1
 5 1 -2 33287.44 808.39 1
 5 -1 -2 34995.53 881 1
 -5 1 1 4443.97 304.37 1
 -5 -1 1 4999.29 349.03 1
 5 1 -1 4850.04 264.77 1
 5 -1 -1 4434.37 254.85 1
 -5 1 0 22468.54 656.43 1
 -5 -1 0 20340.6 599.4 1
 5 1 0 21698.45 549.54 1
 5 -1 0 22337.99 586.56 1
 -5 1 -1 31340.37 866.15 1
 -5 -1 -1 31436.42 866.89 1
 5 1 1 31954.38 801.98 1
 5 -1 1 33653.51 862.73 1
 -5 1 -2 7984.14 478.24 1
 -5 -1 -2 7602.71 456.87 1
 5 1 2 7311.85 408.46 1
 5 -1 2 7545.28 424.62 1
 -5 1 -3 3212.37 241.5 1
 -5 -1 -3 3775.23 257.79 1
 5 1 3 3488.38 409.57 1
 5 -1 3 3654.5 235.09 1
 -5 1 -4 2111.58 174.96 1
 -5 -1 -4 2137.03 176.37 1
 5 1 4 2075.04 348.48 1
 5 -1 4 2195.39 159.45 1
 -5 1 -5 2027.49 186.81 1
 -5 -1 -5 1691.2 152.79 1
 5 1 5 1431.22 264.56 1
 5 -1 5 1820.99 155.26 1
 -5 1 -6 56939.4 1357.3 1
 -5 -1 -6 58888.41 5130.58 1
 5 1 6 57086.17 1380.31 1
 5 -1 6 58533.96 5095.83 1
 -5 1 -7 7283.54 674.8 1
 -5 -1 -7 6766.43 562.52 1
 5 1 7 6522.28 553.11 1
 5 -1 7 7146.58 585.78 1
 -5 1 -8 804.78 129.06 1
 -5 -1 -8 1134.3 146.01 1
 5 -1 8 879.94 209.53 1
 -5 1 -9 5146.22 291.16 1
 -5 -1 -9 4904.23 516.99 1
 5 1 9 6207.37 732.87 1
 5 -1 9 4943.75 656.79 1
 -5 1 -10 4802.3 336.46 1
 -5 -1 -10 4604.77 320.04 1
 5 1 10 4430.4 601.57 1
 5 -1 10 4170.55 541.17 1
 -5 1 -11 275.05 98.58 1
 -5 -1 -11 391.16 93.16 1
 5 1 11 272.94 126.81 1
 5 -1 11 429.86 113.73 1
 5 1 12 2239.72 401.79 1
 5 -1 12 2445.67 425.61 1
 -5 -3 13 111.9 95.15 1
 -5 3 12 13897.7 713.59 1
 -5 -3 12 14130.19 720.9 1
 -5 -3 11 7513.44 480.03 1
 -5 3 10 15639.22 730.3 1
 -5 -3 10 16649.5 787.22 1
 -5 3 9 14029.8 659.3 1
 -5 -3 9 14249.57 682.28 1
 -5 3 8 4133.55 367.25 1
 -5 -3 8 4407.57 398.49 1
 -5 3 7 3154.47 295.3 1
 -5 3 6 8626.72 312.55 1
 -5 -3 6 9090.99 531.07 1
 -5 3 5 41698.55 1108.94 1
 -5 -3 5 40526.91 1089.12 1
 5 -3 -5 42720.04 1085.65 1
 -5 -3 4 31415.97 866.29 1
 5 -3 -4 33085.22 851.44 1
 -5 3 3 32506.93 885.01 1
 -5 -3 3 31072.6 857.87 1
 5 -3 -3 32311.48 835.31 1
 -5 3 2 10355.08 600.97 1
 -5 -3 2 10771.66 618.73 1
 5 -3 -2 10193.29 567.37 1
 -5 3 1 9228.93 540.68 1
 -5 -3 1 8593.58 505.57 1
 5 -3 -1 9473.82 529.36 1
 -5 3 0 11891.08 677.08 1
 -5 -3 0 12426.44 704.5 1
 5 -3 0 12880.47 710.67 1
 -5 3 -1 2464.48 201.98 1
 -5 -3 -1 1990.2 164.62 1
 5 3 1 2269.09 190.48 1
 5 -3 1 2073.44 152.35 1
 -5 3 -2 10887.46 609.92 1
 -5 -3 -2 10299.14 573.55 1
 5 3 2 9794.78 507.29 1
 5 -3 2 9661.66 523.31 1
 -5 3 -3 8792.23 504.29 1
 -5 -3 -3 8998.62 511.92 1
 5 3 3 8668.46 470.77 1
 5 -3 3 10256.7 562.02 1
 -5 3 -4 24199.53 697.73 1
 -5 -3 -4 24249.4 681.47 1
 5 3 4 24396.95 668.28 1
 5 -3 4 25929.7 714.7 1
 -5 3 -5 38105.97 959.36 1
 -5 -3 -5 40590.05 1003.46 1
 5 3 5 39972.38 1000.83 1
 5 -3 5 40582.97 998.29 1
 -5 3 -6 4234.18 371.55 1
 -5 -3 -6 5266.96 446.01 1
 5 3 6 4502.41 390.71 1
 5 -3 6 4794.08 414.04 1
 -5 3 -7 798.31 122.88 1
 -5 -3 -7 611.57 101.74 1
 5 3 7 601.06 159.19 1
 -5 3 -8 5397.58 313.49 1
 -5 -3 -8 4976.14 526.45 1
 5 3 8 4933.44 678.08 1
 5 -3 8 5710.8 327.11 1
 -5 3 -9 10397.98 612.45 1
 -5 -3 -9 10018.1 583.8 1
 5 3 9 8938.85 876.8 1
 5 -3 9 10670.43 631.65 1
 -5 3 -10 6324.79 403.38 1
 -5 -3 -10 6035.84 376.19 1
 5 3 10 5788.07 693.71 1
 5 -3 10 6395 412.13 1
 -5 3 -11 7876.05 435.76 1
 5 3 11 6684.55 839.18 1
 5 -3 11 6173.44 844.55 1
 -5 3 -12 5054.12 412.44 1
 5 3 12 4023.73 650.06 1
 5 -3 12 3757.23 767.65 1
 5 5 -13 437.29 126.3 1
 5 5 -12 7680.82 601.47 1
 5 5 -11 1644.31 432.91 1
 -5 5 11 1513.02 231.16 1
 5 5 -10 4522.37 427.33 1
 5 5 -9 1841.88 312.32 1
 -5 5 9 1889.15 229.06 1
 5 5 -8 711.78 138.45 1
 -5 5 8 629.27 107.21 1
 5 5 -7 4742.14 752.36 1
 -5 5 7 5091.64 435.45 1
 5 5 -6 5964.92 674.04 1
 -5 5 6 6134.08 514.76 1
 5 5 -5 38827.96 1025.01 1
 -5 5 5 38513.14 966.13 1
 5 5 -4 53546.54 1309.28 1
 -5 5 4 53839.83 1293.17 1
 5 -5 -4 52377.23 1238.71 1
 5 5 -3 2509.26 220.11 1
 5 -5 -3 2666.5 196.56 1
 -5 5 2 17136.59 529.97 1
 -5 -5 2 16412.28 519.59 1
 5 -5 -2 17337.82 507.71 1
 -5 5 1 35608.52 966.07 1
 -5 -5 1 34927.26 949.48 1
 5 -5 -1 37393.17 979.09 1
 -5 5 0 4164.3 286.59 1
 -5 -5 0 4242.48 279.63 1
 5 -5 0 4566.11 290.19 1
 -5 5 -1 15822.53 506.29 1
 -5 -5 -1 17286.92 537.18 1
 5 -5 1 16352.93 493.81 1
 -5 5 -2 51308.8 1334.75 1
 -5 -5 -2 49741.85 1286.9 1
 5 -5 2 49355.55 1273.92 1
 -5 5 -3 1652.9 196.34 1
 -5 -5 -3 2482.24 246.99 1
 5 -5 3 1878.36 202.31 1
 -5 5 -4 22449.93 631.1 1
 -5 -5 -4 21622.02 592.02 1
 5 -5 4 20715.16 572.16 1
 -5 5 -5 15848.56 496.04 1
 -5 -5 -5 15798.39 460.26 1
 5 -5 5 18693.64 560.34 1
 -5 5 -6 12343.02 605.76 1
 -5 -5 -6 12543.35 587.05 1
 5 -5 6 13125.16 633.56 1
 -5 5 -7 7217.28 380.45 1
 -5 -5 -7 7321.55 377.27 1
 5 5 7 6393.06 342.03 1
 5 -5 7 6066.3 339.85 1
 -5 5 -8 259.29 81.24 1
 -5 -5 -8 339.09 108.55 1
 5 5 8 354.63 86.35 1
 -5 5 -9 603.75 141.08 1
 -5 -5 -9 538.61 98.76 1
 5 5 9 265.96 103.16 1
 5 -5 9 466.45 98.16 1
 -5 5 -10 2009.76 286.86 1
 5 5 10 954.3 269.88 1
 5 -5 10 1541.36 246.64 1
 -5 5 -11 2705.18 252.67 1
 5 5 11 2161.41 441.43 1
 5 -5 11 2628.58 263.83 1
 5 7 -12 7386.09 824.96 1
 5 7 -11 2291.47 450.71 1
 5 7 -9 3131.62 724.89 1
 5 7 -8 2673.48 470.57 1
 -5 7 8 2896.6 253.54 1
 5 7 -7 27635.67 1268.45 1
 -5 7 7 28292.6 2819.56 1
 5 7 -6 5012.71 678.92 1
 -5 7 6 4531.23 440.15 1
 5 7 -5 8781.12 714.15 1
 -5 7 5 8045.87 424.67 1
 5 -7 -5 8747.41 441.03 1
 5 7 -4 630.99 142.97 1
 -5 7 4 861.64 137.6 1
 5 -7 -4 756.4 124.25 1
 5 7 -3 3526.34 528.59 1
 5 -7 -3 3455.1 321.76 1
 5 7 -2 16980.51 603.69 1
 5 -7 -2 17994.79 526.64 1
 5 7 -1 18097.52 580.12 1
 -5 7 1 19229.31 567.7 1
 5 -7 -1 18082.06 526.14 1
 -5 7 0 21272.47 607.89 1
 5 -7 0 20997.62 582.11 1
 -5 7 -1 2810.96 280.95 1
 -5 -7 -1 2659.66 260.08 1
 5 -7 1 3053.13 289.06 1
 -5 7 -2 2152.09 249.21 1
 -5 -7 -2 2146.85 214.71 1
 5 -7 2 2428.79 253.14 1
 -5 7 -3 1593.78 187.24 1
 -5 -7 -3 1878.92 198.21 1
 5 -7 3 1689.26 194.6 1
 -5 7 -4 7509.53 403.61 1
 -5 -7 -4 7984.06 402.83 1
 5 -7 4 7149 397.4 1
 -5 7 -5 3404.01 356.61 1
 -5 -7 -5 3442.46 344.13 1
 5 -7 5 3558.5 383.77 1
 -5 7 -6 7656.97 483.59 1
 -5 -7 -6 6357.68 393.33 1
 5 -7 6 7104.91 457.18 1
 -5 7 -7 8718.94 543.14 1
 -5 -7 -7 8402.97 496.62 1
 5 -7 7 9241.95 586.15 1
 -5 7 -8 3236.53 227.13 1
 -5 -7 -8 3511.09 223.48 1
 5 -7 8 3136.46 242.68 1
 -5 7 -9 12752.01 667.89 1
 5 -7 9 11690.68 634.85 1
 -5 7 -10 618.62 135.78 1
 5 -7 10 664.97 166.64 1
 5 9 -10 961 319.31 1
 5 9 -9 976.64 268.82 1
 -5 9 9 730.01 164 1
 5 9 -8 4161.46 574.92 1
 5 9 -7 4001.17 545.47 1
 -5 9 7 4132.33 263.47 1
 5 9 -6 1457.53 354.45 1
 -5 9 6 1112.4 169.88 1
 5 9 -5 366.67 94.97 1
 -5 9 5 446.46 115.89 1
 5 -9 -5 298.7 150.5 1
 5 9 -4 5157.18 795.61 1
 -5 9 4 6641.3 433.46 1
 5 -9 -4 5931.52 398.72 1
 5 9 -3 17907.27 867.99 1
 5 -9 -3 18784.87 879.11 1
 5 9 -2 2403.01 440.04 1
 -5 9 2 2699.9 293.49 1
 5 -9 -2 3553.84 364.16 1
 5 -9 -1 5378.06 316.78 1
 5 9 0 3682.52 835.16 1
 -5 9 0 3479.35 368.04 1
 5 -9 0 3670.1 378.73 1
 -5 9 -1 11748.27 587.74 1
 5 -9 1 12486.01 618.69 1
 5 9 2 373.98 105.85 1
 -5 9 -2 617.09 151.01 1
 5 -9 2 343.58 156.42 1
 -5 9 -3 1886.3 270.77 1
 -5 -9 -3 1275.26 174.83 1
 5 -9 3 1466.21 238.35 1
 -5 9 -4 4958.28 340.29 1
 -5 -9 -4 4563.55 311 1
 5 -9 4 4583.95 330.38 1
 -5 -9 -5 397.92 106.64 1
 5 -9 5 343.78 103.73 1
 -5 9 -6 1912.98 273.8 1
 -5 -9 -6 2256.58 290.73 1
 5 -9 6 1905.75 269.45 1
 -5 9 -7 8261.83 484.61 1
 -5 -9 -7 7386.68 398.41 1
 5 -9 7 7385.43 452.92 1
 -5 9 -8 2086.02 219.1 1
 5 -9 8 1653.07 294.17 1
 -5 9 -9 1722.23 296.97 1
 5 -9 9 1780.61 346.46 1
 5 11 -7 145.22 114.11 1
 -5 11 7 262.56 123.61 1
 5 11 -6 3581.64 716.46 1
 -5 11 6 5129.89 422.56 1
 5 -11 -6 4716.25 410.09 1
 5 11 -5 1206.26 265.71 1
 -5 11 5 1942.34 324.51 1
 5 -11 -5 2017.74 369.57 1
 5 11 -4 -14.79 76.69 1
 -5 11 4 301.94 125.69 1
 5 -11 -4 74.54 118.98 1
 5 11 -3 3165.58 508.5 1
 -5 11 3 3416.16 247.17 1
 5 -11 -3 3643.46 284.68 1
 5 11 -2 10134.09 572.09 1
 -5 11 2 10552.8 577.68 1
 5 -11 -2 11062.67 605.03 1
 5 11 -1 4422.55 896.59 1
 -5 11 1 5503.9 369.38 1
 5 -11 -1 4893.52 352.02 1
 -5 11 0 674.33 178.09 1
 5 -11 0 522.93 184.55 1
 5 11 1 2668.18 777.01 1
 -5 11 -1 3694.95 278.31 1
 5 -11 1 3336.92 268.07 1
 5 11 2 2404.67 536.94 1
 -5 11 -2 2497.46 350.32 1
 5 -11 2 1976.23 281.3 1
 5 11 3 56.03 85.37 1
 -5 11 -3 101.08 100.8 1
 5 -11 3 225.74 113.36 1
 -5 11 -4 164.58 107.82 1
 -5 -11 -4 272.04 104.8 1
 5 -11 4 304.42 165.83 1
 -5 11 -5 2240.74 230.07 1
 -5 -11 -5 1959.73 322.86 1
 5 -11 5 1961.2 342.1 1
 -5 11 -6 416.76 156.87 1
 -6 0 11 554.91 159.55 1
 -6 0 10 2494.07 343.9 1
 -6 0 9 27.63 74.39 1
 -6 0 8 5697.06 380.97 1
 -6 0 7 143.97 96.8 1
 -6 0 6 3861.06 397.81 1
 -6 0 5 30.46 97.35 1
 -6 0 4 13575.56 462.28 1
 -6 0 3 3.98 111.48 1
 -6 0 2 25861 721.18 1
 -6 0 1 142.25 97.53 1
 6 0 -1 101.25 39.76 1
 -6 0 0 14980.45 483 1
 -6 0 -1 157.55 94.77 1
 6 0 1 157.85 54.07 1
 -6 0 -2 3663.78 351.13 1
 6 0 2 2978.22 253.85 1
 -6 0 -3 201.29 83.68 1
 6 0 3 59.75 65.19 1
 -6 0 -4 18123.43 843.87 1
 -6 0 -5 203.37 100.02 1
 -6 0 -6 5530.64 369.48 1
 6 0 6 4731.62 580.43 1
 -6 0 -7 358.25 117.88 1
 6 0 7 50.87 65.36 1
 -6 0 -8 14077.15 714.05 1
 6 0 8 12932.17 708.59 1
 -6 0 -9 89.9 109.55 1
 6 0 9 -5.34 83.17 1
 -6 0 -10 284 114.5 1
 6 0 10 93.41 63.07 1
 -6 2 11 2035.15 338.59 1
 -6 -2 11 3237.34 298.37 1
 -6 2 10 516.62 130.34 1
 -6 -2 10 650.72 176.54 1
 -6 2 9 4075.43 285.38 1
 -6 -2 9 4274.29 312.61 1
 -6 2 8 6394.25 420.5 1
 -6 -2 8 6623.81 438.24 1
 -6 2 7 56.95 83.18 1
 -6 -2 7 373.12 118.94 1
 -6 2 6 6113.99 369.03 1
 -6 -2 6 6516.19 392.89 1
 -6 2 5 16165.96 789.29 1
 -6 -2 5 14913.09 719.01 1
 6 -2 -5 13731.27 614.55 1
 -6 2 4 10659.25 390.29 1
 -6 -2 4 10409.45 383.81 1
 6 -2 -4 9669.08 287.85 1
 -6 2 3 10327.03 397.05 1
 -6 -2 3 10800.49 402.58 1
 6 -2 -3 9919.95 284.44 1
 -6 2 2 2520.98 270.8 1
 -6 -2 2 2297.18 252.47 1
 6 -2 -2 2180.81 202.12 1
 -6 2 1 19285.56 576.98 1
 -6 -2 1 18818.05 563.84 1
 -6 2 0 737.13 157.49 1
 -6 -2 0 1123.96 157.04 1
 -6 2 -1 23503.06 664.12 1
 -6 -2 -1 23265.16 664.84 1
 -6 2 -2 1689.14 196.66 1
 -6 -2 -2 1814.73 212.48 1
 6 -2 2 1733.41 180.65 1
 -6 2 -3 2821.24 313.69 1
 -6 -2 -3 2556.72 270.47 1
 6 2 3 1658.2 316.02 1
 6 -2 3 2500.01 254.56 1
 -6 2 -4 8133.39 441.01 1
 -6 -2 -4 7550.36 413.29 1
 6 2 4 6279.98 472.61 1
 6 -2 4 6645.55 340.13 1
 -6 2 -5 11619.69 575.52 1
 -6 -2 -5 12051.26 597.39 1
 6 2 5 9634.52 491.29 1
 6 -2 5 11406.28 539.04 1
 -6 2 -6 3457.08 262.83 1
 -6 -2 -6 2738.73 356.82 1
 6 2 6 2158.04 485.89 1
 6 -2 6 2483.61 295.44 1
 -6 2 -7 4318.54 323.12 1
 -6 -2 -7 4726.89 328.44 1
 6 2 7 2737.4 509.52 1
 6 -2 7 4462.13 299.69 1
 -6 2 -8 5718.73 355.48 1
 -6 -2 -8 5096.13 319.45 1
 6 2 8 3143.35 499.4 1
 6 -2 8 5425.26 326.39 1
 -6 2 -9 9098.14 507.21 1
 -6 -2 -9 7897.89 434 1
 6 2 9 6231.83 780.56 1
 6 -2 9 7232.38 716.77 1
 -6 2 -10 1287.07 238.78 1
 -6 -2 -10 1006.09 187.06 1
 6 2 10 1606.47 284.99 1
 6 -2 10 1092.26 309.11 1
 -6 4 11 618.5 148.04 1
 -6 -4 11 586.96 156.19 1
 -6 4 10 474.73 154.45 1
 -6 -4 10 286.96 131.04 1
 -6 4 9 1967.25 279.74 1
 -6 -4 9 2177.64 338.13 1
 -6 4 8 400.88 129.72 1
 -6 -4 8 68.2 104.7 1
 -6 4 7 2866.95 244.04 1
 -6 -4 7 2599.09 317.05 1
 6 -4 -7 2658.05 297.88 1
 -6 4 6 1696.26 224.13 1
 -6 -4 6 2534.51 315.62 1
 6 -4 -6 2237.28 258.37 1
 -6 4 5 20271.89 939.67 1
 -6 -4 5 20415.25 953.72 1
 6 -4 -5 18876.99 839.21 1
 -6 4 4 12908.51 637.35 1
 -6 -4 4 11576.43 602.98 1
 -6 4 3 4820.57 533.8 1
 -6 -4 3 3954.74 394.68 1
 6 -4 -3 4221.19 404.57 1
 -6 4 2 742.96 140.04 1
 6 -4 -2 307.22 73.07 1
 -6 4 1 13236.81 656.8 1
 -6 -4 1 14932.6 715.98 1
 6 -4 -1 13684.08 629.96 1
 -6 4 0 3625.01 378.37 1
 -6 -4 0 4016.55 403.17 1
 6 -4 0 3383.9 330.05 1
 -6 4 -1 15539.97 740.94 1
 -6 -4 -1 16590.88 778.58 1
 6 -4 1 16456.6 744.14 1
 -6 4 -2 3421.63 353.46 1
 -6 -4 -2 3810.19 384.94 1
 6 -4 2 3157.88 315.89 1
 -6 4 -3 5332.42 331.26 1
 -6 -4 -3 4537.59 440.07 1
 6 -4 3 5898.5 326.87 1
 -6 4 -4 1068.6 166.5 1
 -6 -4 -4 958.94 139.29 1
 6 -4 4 995.58 148.51 1
 -6 4 -5 15535.76 895.28 1
 -6 -4 -5 15723.81 892.54 1
 6 -4 5 15095.64 850.32 1
 -6 4 -6 889.72 162.95 1
 -6 -4 -6 1106.31 173.65 1
 6 -4 6 788.12 135.58 1
 -6 4 -7 1651.92 240 1
 -6 -4 -7 1181.71 189.17 1
 6 -4 7 1487.07 210.05 1
 -6 4 -8 1166.81 195.91 1
 -6 -4 -8 600.63 115.58 1
 6 -4 8 1182.08 192 1
 -6 4 -9 2609.23 250.31 1
 -6 -4 -9 2683.31 261.18 1
 6 -4 9 3302.09 299.25 1
 -6 6 10 2615.75 259.52 1
 -6 -6 10 3299.74 322.02 1
 -6 6 9 1897.99 334.22 1
 -6 6 8 4767.3 303.41 1
 -6 6 7 7039.99 406.72 1
 -6 -6 7 7043.86 446.54 1
 -6 6 6 1318.24 197.14 1
 -6 -6 6 1766.29 247.78 1
 -6 6 5 5362.82 374.94 1
 -6 -6 5 5078.41 395.04 1
 6 -6 -5 3555.68 263.35 1
 -6 6 4 7934.44 513.96 1
 -6 -6 4 6985.23 454.95 1
 6 -6 -4 6830.57 422.98 1
 -6 6 3 1368.28 197 1
 -6 -6 3 1926.62 263.3 1
 6 -6 -3 1515.47 205.95 1
 -6 6 2 4500.55 448.82 1
 -6 -6 2 3329.98 342.46 1
 6 -6 -2 3822.31 379.52 1
 -6 6 1 5625.36 363.13 1
 -6 -6 1 7026.76 402.72 1
 6 -6 -1 5474.08 308.12 1
 -6 6 0 660.89 143.88 1
 -6 -6 0 854.36 146.33 1
 6 -6 0 754.24 116.7 1
 -6 6 -1 -67.34 107.58 1
 -6 -6 -1 241.48 107.16 1
 -6 6 -2 4348.41 326.93 1
 -6 -6 -2 3504.84 264.72 1
 6 -6 2 4142.36 286.34 1
 -6 6 -3 2471.82 304.4 1
 -6 -6 -3 2430.54 289.85 1
 6 -6 3 3220.18 244.09 1
 -6 6 -4 4296.77 322.71 1
 -6 -6 -4 4589.59 312.6 1
 6 -6 4 4745.39 334.59 1
 -6 6 -5 171.3 105.74 1
 -6 -6 -5 368.55 120.81 1
 6 -6 5 489.38 140.84 1
 -6 6 -6 8588.98 497.67 1
 -6 -6 -6 8255.3 458.76 1
 6 -6 6 9127.98 508.76 1
 -6 6 -7 399.37 131.93 1
 -6 -6 -7 64.26 67.5 1
 6 -6 7 146.52 85.35 1
 -6 6 -8 1062.64 215.56 1
 -6 -6 -8 1133.33 216.14 1
 6 -6 8 1241.72 247.37 1
 6 8 -8 1006.67 336.36 1
 -6 8 8 984.58 195.25 1
 6 -8 -8 1534.4 288.69 1
 6 8 -7 5751.16 562.65 1
 -6 8 7 5488.96 452.6 1
 6 -8 -7 4902.29 413.75 1
 6 8 -6 12972.37 879.32 1
 -6 8 6 14586.85 759.16 1
 6 -8 -6 13208.95 684.19 1
 6 8 -5 641.96 194 1
 -6 8 5 754.5 139.59 1
 6 -8 -5 281.18 104.26 1
 6 8 -4 6666.9 416.87 1
 -6 8 4 9786.76 546.51 1
 6 -8 -4 7188.78 407.89 1
 6 8 -3 9737.79 549.65 1
 -6 8 3 9700.7 547.49 1
 6 -8 -3 9831.4 522.91 1
 -6 8 2 707.69 182.15 1
 -6 -8 2 488.45 124.02 1
 6 -8 -2 280.92 96.21 1
 -6 8 1 4797.39 343.77 1
 -6 -8 1 4634.05 308.23 1
 6 -8 -1 4987.18 317.46 1
 -6 8 0 9623.65 559.08 1
 -6 -8 0 9632.15 527.27 1
 6 -8 0 9898.07 539.72 1
 -6 8 -1 2082.2 307.66 1
 -6 -8 -1 2561.75 338.22 1
 6 -8 1 2297.07 317.41 1
 -6 8 -2 10639.61 582.87 1
 -6 -8 -2 11856.45 624.44 1
 6 -8 2 11567.25 608.89 1
 -6 8 -3 6802.07 416.77 1
 -6 -8 -3 5294.42 319.91 1
 6 -8 3 5231.39 329.36 1
 -6 8 -4 458.2 129.88 1
 -6 -8 -4 205.4 95.28 1
 6 -8 4 413.46 121.72 1
 -6 8 -5 553.31 151.38 1
 -6 -8 -5 496.8 124.42 1
 6 -8 5 660.14 158.7 1
 -6 8 -6 2834.31 287.44 1
 -6 -8 -6 2824.77 261.21 1
 6 -8 6 3060.49 328.99 1
 6 10 -4 1172.8 422.44 1
 -6 10 4 1726.57 323.33 1
 6 -10 -4 1818.19 341.36 1
 6 10 -3 6098.32 1110.86 1
 -6 10 3 5950.43 495.39 1
 6 -10 -3 7548.26 603.67 1
 -6 10 2 175.2 102.63 1
 6 -10 -2 469 197.95 1
 6 10 -1 1782.29 312.83 1
 -6 10 1 1501.86 282.94 1
 6 -10 -1 2347.88 248.01 1
 -6 10 0 946.63 213.48 1
 -6 -10 0 1644.31 292.97 1
 6 -10 0 2350.91 244.02 1
 -6 10 -1 1388.7 277.36 1
 -6 -10 -1 1442.63 266.14 1
 6 -10 1 1186.85 234.5 1
 -6 10 -2 363.89 116.52 1
 -6 -10 -2 738.94 165.97 1
 6 -10 2 349.03 140.17 1
 -6 10 -3 1199.56 244.46 1
 -6 -10 -3 780.35 168.33 1
 6 -10 3 1106.94 258.48 1
 -7 1 8 10633.21 829.13 1
 -7 -1 8 9520.12 743.52 1
 -7 1 7 693.54 202.41 1
 -7 1 6 4702.94 335.42 1
 -7 -1 5 1208.63 218.59 1
 -7 1 4 5720.58 378.94 1
 -7 -1 4 5253.51 354.82 1
 -7 1 3 2950.85 312.16 1
 -7 -1 3 2404.88 304.97 1
 -7 1 2 775.82 213.07 1
 -7 -1 2 809.42 159.56 1
 -7 1 1 285.87 167.36 1
 -7 -1 1 278.8 119.95 1
 -7 1 0 2662.6 323.32 1
 -7 -1 0 2515.2 302.4 1
 -7 -1 -1 384.48 159.17 1
 -7 1 -2 4031.56 281.8 1
 -7 -1 -2 3801.76 296.74 1
 -7 -1 -3 417.17 111.96 1
 -7 1 -4 5382.67 345.41 1
 -7 -1 -4 5875.18 360.45 1
 -7 1 -5 3077.61 248.42 1
 -7 -1 -5 2640.79 365.75 1
 -7 1 -6 3225.68 315.04 1
 -7 -1 -6 2463.55 241.85 1
 -7 1 -7 10073.44 764.61 1
 -7 -1 -7 10177.39 770.72 1
 -7 3 8 258.79 172.63 1
 -7 -3 8 432.27 121.29 1
 -7 3 7 11171.24 853.71 1
 -7 3 6 285.81 170.17 1
 -7 -3 6 184.83 141.13 1
 -7 3 5 392.94 100.71 1
 -7 -3 5 459.65 123.11 1
 -7 -3 4 13179.08 713.26 1
 -7 3 3 3143.32 250.95 1
 -7 -3 3 3459.39 416.95 1
 -7 3 2 6336.68 422.34 1
 -7 -3 2 7169.99 425.46 1
 -7 3 1 1758.21 275.82 1
 -7 -3 1 1619.46 237.6 1
 -7 3 0 170.19 141.69 1
 -7 -3 0 67.56 85.65 1
 -7 3 -1 1185.49 205.82 1
 -7 -3 -1 916.34 190.11 1
 -7 3 -2 3292.38 247.81 1
 -7 -3 -2 3247.7 253.29 1
 -7 3 -3 9915.03 553.3 1
 -7 -3 -3 10323.8 557.39 1
 -7 3 -4 13335.07 707.83 1
 -7 -3 -4 13098.64 706.37 1
 -7 3 -5 1529.2 280.64 1
 -7 -3 -5 892.84 187.27 1
 7 -3 5 534.94 143.34 1
 -7 3 -6 6270.12 519.27 1
 -7 -3 -6 6067.63 497.58 1
 7 -3 6 5140.39 419.31 1
 -7 5 7 1062.51 238.74 1
 -7 -5 7 833.86 190.3 1
 -7 5 6 678.8 175.33 1
 -7 -5 6 488.14 135.42 1
 -7 5 5 93.84 110.77 1
 -7 -5 5 392.32 161.71 1
 -7 5 4 5830.01 492.79 1
 -7 -5 4 4155.41 373.07 1
 -7 -5 3 1694.51 246.35 1
 -7 5 2 5710.48 383.42 1
 -7 -5 2 5795.18 369.29 1
 -7 5 1 4125.63 342.54 1
 -7 -5 1 4058.21 288.58 1
 -7 5 0 3604.01 294.61 1
 -7 -5 0 3530.74 263.48 1
 7 -5 0 3201.09 229.09 1
 -7 5 -1 2136.5 314.67 1
 -7 -5 -1 2706.43 356.66 1
 7 -5 1 1827.86 266.51 1
 -7 5 -2 11769.92 882.21 1
 -7 -5 -2 12173.12 907.26 1
 7 -5 2 11886.75 880.72 1
 -7 5 -3 4112.24 373.81 1
 -7 -5 -3 3558.62 330.46 1
 7 -5 3 3501.83 306.95 1
 -7 5 -4 14853.5 1101.44 1
 -7 -5 -4 13291.38 980.55 1
 7 -5 4 14467.64 1055.62 1
 -7 5 -5 3129.77 320.92 1
 -7 -5 -5 2870.07 289.6 1
 7 -5 5 2067.61 226.69 1
 -7 7 4 1564.41 288.22 1
 -7 -7 4 1389.16 257.1 1
 -7 7 3 4388.52 405.79 1
 -7 -7 3 4349.8 381.11 1
 7 -7 -3 3571.19 331.54 1
 -7 -7 2 12380.54 928.6 1
 7 -7 -2 10764.06 801.49 1
 -7 7 1 312.31 169.01 1
 -7 -7 1 569.64 164.95 1
 7 -7 -1 230.13 93.06 1
 -7 7 0 12378.81 934.17 1
 -7 -7 0 14077.73 1042.78 1
 7 -7 0 11411.41 846.45 1
 -7 7 -1 197.55 97.51 1
 -7 -7 -1 608.87 175.42 1
 7 -7 1 268.22 135.87 1
 -7 7 -2 5408.42 465.98 1
 -7 -7 -2 6531.45 520.39 1

_iucr_refine_instructions_details
;
TITL bww18524 in Cc
    bww18524.res
    created by SHELXL-2018/3 at 16:58:25 on 13-Nov-2018
CELL 0.71073 6.0855 12.6829 13.554 90 93.294 90
ZERR 4 0.0012 0.0025 0.0027 0 0.03 0
LATT -7
SYMM +X,-Y,0.5+Z
SFAC C H O
UNIT 44 48 20

L.S. 4
PLAN  5
SIZE 0.24 0.23 0.2
TEMP -100
ACTA
BOND $H
CONF
fmap 2
REM <olex2.extras>
REM <HklSrc "%.\\bww18524.hkl">
REM </olex2.extras>

WGHT    0.037100    0.505100
FVAR       8.02312
O1    3    0.762491    0.319571    0.748736    11.00000    0.04710    0.04502 =
         0.06077    0.01056   -0.02378    0.00627
O2    3    0.762303    0.426140    0.621201    11.00000    0.01984    0.04464 =
         0.04741    0.00222   -0.00474    0.00396
O3    3    0.712061    0.602691    0.590465    11.00000    0.02770    0.04168 =
         0.04877    0.00280   -0.00446   -0.01437
O4    3    0.460333    0.467316    0.363918    11.00000    0.02490    0.04159 =
         0.02326   -0.00096    0.00496    0.00122
O5    3    0.124646    0.445463    0.421613    11.00000    0.02059    0.03946 =
         0.02238   -0.00324   -0.00068   -0.00453
C1    1    0.654643    0.369759    0.687962    11.00000    0.03358    0.02956 =
         0.03562   -0.00184   -0.00998    0.00313
C2    1    0.415293    0.370554    0.678855    11.00000    0.02912    0.03069 =
         0.02690    0.00127   -0.00142   -0.00275
AFIX  43
H2    2    0.336831    0.331615    0.725287    11.00000   -1.20000
AFIX   0
C3    1    0.302462    0.423169    0.608705    11.00000    0.01945    0.02740 =
         0.02273   -0.00037    0.00152   -0.00253
AFIX  43
H3    2    0.147086    0.414946    0.602987    11.00000   -1.20000
AFIX   0
C4    1    0.408310    0.495243    0.537719    11.00000    0.01899    0.02805 =
         0.02123   -0.00099    0.00237   -0.00194
C5    1    0.661408    0.502367    0.553858    11.00000    0.01768    0.04214 =
         0.02403    0.00053   -0.00027   -0.00357
AFIX  13
H5    2    0.727382    0.494422    0.488377    11.00000   -1.20000
AFIX   0
C6    1    0.519321    0.646468    0.631737    11.00000    0.03958    0.03021 =
         0.03098   -0.00139   -0.00503   -0.00674
AFIX  23
H6A   2    0.528625    0.724311    0.635442    11.00000   -1.20000
H6B   2    0.499905    0.618069    0.698713    11.00000   -1.20000
AFIX   0
C7    1    0.331802    0.611784    0.559592    11.00000    0.02622    0.02703 =
         0.02243   -0.00154    0.00271   -0.00205
AFIX  13
H7    2    0.189663    0.610955    0.593120    11.00000   -1.20000
AFIX   0
C8    1    0.312892    0.681116    0.469803    11.00000    0.03552    0.02658 =
         0.02965    0.00109    0.00082   -0.00216
AFIX  43
H8    2    0.443806    0.700414    0.439371    11.00000   -1.20000
AFIX   0
C9    1    0.122942    0.716610    0.431038    11.00000    0.04457    0.03282 =
         0.03937    0.00123   -0.00458    0.00471
AFIX  93
H9A   2   -0.010246    0.698405    0.460133    11.00000   -1.20000
H9B   2    0.119531    0.760340    0.374065    11.00000   -1.20000
AFIX   0
C10   1    0.339434    0.467178    0.431235    11.00000    0.02112    0.02334 =
         0.02267    0.00159    0.00060    0.00190
C11   1    0.034214    0.427875    0.321613    11.00000    0.02870    0.04704 =
         0.02291   -0.00353   -0.00539   -0.00412
AFIX 137
H11A  2    0.067672    0.488538    0.280278    11.00000   -1.50000
H11B  2   -0.125691    0.419062    0.322216    11.00000   -1.50000
H11C  2    0.099563    0.364142    0.294782    11.00000   -1.50000
AFIX   0
HKLF 4




REM  bww18524 in Cc
REM wR2 = 0.0815, GooF = S = 1.042, Restrained GooF = 1.042 for all data
REM R1 = 0.0337 for 2123 Fo > 4sig(Fo) and 0.0346 for all 2169 data
REM 146 parameters refined using 2 restraints

END  
     
WGHT      0.0371      0.5051 

REM Highest difference peak  0.216,  deepest hole -0.137,  1-sigma level  0.033
Q1    1   0.5351  0.4971  0.5469  11.00000  0.05    0.22
Q2    1   0.3745  0.4782  0.4944  11.00000  0.05    0.16
Q3    1   0.3625  0.4558  0.5717  11.00000  0.05    0.14
Q4    1   0.5257  0.3633  0.6817  11.00000  0.05    0.13
Q5    1   0.3617  0.4212  0.6552  11.00000  0.05    0.13

  REM The information below was added by Olex2.
  REM
  REM R1 = 0.0337 for 2123 Fo > 4sig(Fo) and 0.0346 for all 3513 data
  REM n/a parameters refined using n/a restraints
  REM Highest difference peak 0.22, deepest hole -0.14
  REM Mean Shift 0, Max Shift 0.000.

  REM +++ Tabular Listing of Refinement Information +++
  REM R1_all = 0.0346
  REM R1_gt = 0.0337
  REM wR_ref = 0.0815
  REM GOOF = 1.042
  REM Shift_max = 0.000
  REM Shift_mean = 0
  REM Reflections_all = 3513
  REM Reflections_gt = 2123
  REM Parameters = n/a
  REM Hole = -0.14
  REM Peak = 0.22
  REM Flack = 0.6(6)

  
;
_olex2_submission_special_instructions  'No special instructions were received'
