##############################################################################
#                                                                            #
# This CIF contains the data in a paper accepted for publication in          #
# Acta Crystallographica Section C. It conforms to the requirements of       #
# Notes for Authors for Acta Crystallographica Section C, and has been       #
# peer reviewed under the auspices of the IUCr Commission on Journals.       #
#                                                                            #
# Full details of the Crystallographic Information File format               #
# are given in the paper "The Crystallographic Information File (CIF):       #
# a New Standard Archive File for Crystallography" by S. R. Hall, F. H.      #
# Allen and I. D. Brown [Acta Cryst. (1991), A47, 655-685].                  #
#                                                                            #
# The current version of the core CIF dictionary is obtainable from          #
# ftp://ftp.iucr.org/pub/cif_core.dic.                                       #
#                                                                            #
# Software is freely available for graphical display of the structure(s)     #
# in this CIF. For information consult the CIF software page                 #
# http://www.iucr.org/resources/cif/software.                                #
#                                                                            #
# This file may be used for bona fide research purposes within the           #
# scientific community so long as proper attribution is given to the journal # 
# article from which it was obtained.                                        #
#                                                                            #
##############################################################################
data_Griseofulvin_Phase_II
_audit_creation_method     'Jana2006 Version : 18/06/2015'
_journal_date_recd_electronic     2017-11-08
_journal_date_accepted     2018-01-30
_journal_name_full     'Acta Crystallographica, Section C'
_journal_year     2018
_journal_volume     74
_journal_issue      3
_journal_page_first     319
_journal_page_last     322
_journal_paper_category     FA
_journal_paper_doi     10.1107/S2053229618001845
_journal_coeditor_code     CU3124
_publ_contact_author_name     'Mathieu Guerain'
_publ_contact_author_address
;
Unit\'e Mat\'eriaux et Transformations
UFR de Physique
b\^at. P5
Universit\'e Lille 1
Sciences et Technologies
59655 Villeneuve d'ascq Cedex
France
;
_publ_contact_author_email     'mathieu.guerain@univ-lille1.fr'
_publ_contact_author_fax     ?
_publ_contact_author_phone     ?
_publ_section_title
;
Structure determination of phase II of the antifungal drug griseofulvin by
powder X-ray diffraction
;
loop_
    _publ_author_name
    _publ_author_address
    'Mahieu, Aur\'elien'
;
Universit\'e de Lille
F-59000 Lille
UMET (Unit\'e Mat\'eriaux et Transformations)
UMR CNRS 8207 F-59650 Villeneuve d'Ascq
France
;
    'Willart, Jean-Fran\,cois'
;
Universit\'e de Lille
F-59000 Lille
UMET (Unit\'e Mat\'eriaux et Transformations)
UMR CNRS 8207 F-59650 Villeneuve d'Ascq
France
;
    'Guerain, Mathieu'
;
Universit\'e de Lille
F-59000 Lille
UMET (Unit\'e Mat\'eriaux et Transformations)
UMR CNRS 8207 F-59650 Villeneuve d'Ascq
France
;
    'Derollez, Patrick'
;
Universit\'e de Lille
F-59000 Lille
UMET (Unit\'e Mat\'eriaux et Transformations)
UMR CNRS 8207 F-59650 Villeneuve d'Ascq
France
;
    'Dan\'ede, Florence'
;
Universit\'e de Lille
F-59000 Lille
UMET (Unit\'e Mat\'eriaux et Transformations)
UMR CNRS 8207 F-59650 Villeneuve d'Ascq
France
;
    'Descamps, Marc'
;
Universit\'e de Lille
F-59000 Lille
UMET (Unit\'e Mat\'eriaux et Transformations)
UMR CNRS 8207 F-59650 Villeneuve d'Ascq
France
;
_publ_section_synopsis
;
The crystal structure of the recently detected phase II of the widely used
antifungal drug griseofulvin has been solved by powder X-ray diffraction. The
symmetry is orthorhombic (space group <i>P</i>2~1~2~1~2~1~) and the asymmetric
unit contains two molecules.
;
data_I
_database_code_depnum_ccdc_archive     'CCDC 1820716'
_pd_block_diffractogram_id     ?
_chemical_name_systematic
;\
(2<i>S</i>,6'<i>R</i>)-7-Chloro-2',4,6-trimethoxy-6'-methyl-\
3<i>H</i>,4'<i>H</i>-spiro[1-benzofuran-2,1'-cyclohex-2-ene]-3,4'-dione
;
_chemical_name_common     Griseofulvin
_chemical_formula_moiety     'C17 H17 Cl O6'
_chemical_formula_sum     'C17 H17 Cl O6'
_chemical_formula_structural     ?
_chemical_formula_analytical     ?
_chemical_formula_iupac     'C17 H17 Cl O6'
_chemical_formula_weight     352.76
_chemical_melting_point     ?
_symmetry_cell_setting     orthorhombic
_symmetry_space_group_name_H-M     'P 21 21 21'
_symmetry_space_group_name_Hall     'P 2ac 2ab'
loop_
    _space_group_symop_id
    _space_group_symop_operation_xyz
    1 x,y,z
    2 -x+1/2,-y,z+1/2
    3 -x,y+1/2,-z+1/2
    4 x+1/2,-y+1/2,-z
_cell_length_a     11.76250(11)
_cell_length_b     12.00313(13)
_cell_length_c     24.2755(2)
_cell_angle_alpha     90
_cell_angle_beta     90
_cell_angle_gamma     90
_cell_volume     3427.38(6)
_cell_formula_units_Z     8
_cell_measurement_reflns_used     30
_cell_measurement_theta_min     5
_cell_measurement_theta_max     20
_cell_measurement_temperature     293
_cell_special_details     ?
_exptl_crystal_density_diffrn     1.3673
_exptl_crystal_density_meas     ?
_exptl_crystal_density_method     ?
_exptl_crystal_F_000     1472
_pd_char_colour     'white'
_pd_char_particle_morphology     ?
loop_
    _exptl_crystal_face_index_h
    _exptl_crystal_face_index_k
    _exptl_crystal_face_index_l
    _exptl_crystal_face_perp_dist
    ? ? ? ?
_exptl_absorpt_coefficient_mu     1.172
_exptl_absorpt_correction_type     ?
_exptl_absorpt_process_details     ?
_exptl_absorpt_correction_T_min     ?
_exptl_absorpt_correction_T_max     ?
_exptl_special_details     ?
_diffrn_ambient_temperature     293
_diffrn_radiation_type     synchrotron
_diffrn_radiation_wavelength     1.23922
_diffrn_radiation_monochromator     ?
_diffrn_measurement_device_type     'powder diffractometer'
_diffrn_measurement_device     ?
_pd_instr_location     ?
loop_
    _refln_index_h
    _refln_index_k
    _refln_index_l
    _refln_observed_status
    _refln_F_squared_meas
    _refln_F_squared_calc
    _refln_d_spacing
    0 0 2 o 6280.30 6501.16 12.137769
    0 1 1 o 1049.05 1158.90 10.759690
    1 0 1 < 34.05 72.43 10.585340
    0 1 2 o 299.42 348.38 8.534698
    1 0 2 o 634.46 653.96 8.446897
    1 1 0 o 3833.64 3882.77 8.401127
    1 -1 1 o 2433.92 2536.96 7.939144
    1 1 1 o 2433.92 2536.96 7.939144
    1 1 2 o 14955.97 15231.97 6.907858
    1 -1 2 o 14955.99 15231.98 6.907858
    0 1 3 o 973.00 1288.70 6.709576
    1 0 3 o 972.61 844.78 6.666663
    0 0 4 o 100634.62 105268.94 6.068884
    0 2 0 o 1794.89 1802.70 6.001565
    2 0 0 o 1855.75 2119.74 5.881250
    1 1 3 o 10073.05 10322.33 5.828071
    1 -1 3 o 10073.04 10322.33 5.828071
    0 2 1 o 1287.14 1324.93 5.826155
    2 0 1 o 25142.92 25527.57 5.715894
    0 1 4 o 3873.92 3957.06 5.415971
    1 0 4 o 210.65 186.59 5.393325
    0 2 2 < 4.30 5.25 5.379845
    1 2 0 o 1280.92 1466.84 5.345912
    2 0 2 o 6236.37 6766.41 5.292670
    2 1 0 o 6826.66 7384.43 5.281355
    1 -2 1 o 709.38 749.43 5.220816
    1 2 1 o 709.38 749.43 5.220816
    2 1 1 o 10895.38 11023.37 5.160635
    2 -1 1 o 10895.38 11023.36 5.160635
    1 -1 4 o 4653.45 4749.07 4.919528
    1 1 4 o 4653.45 4749.07 4.919528
    1 -2 2 o 278.44 290.11 4.892407
    1 2 2 o 278.44 290.11 4.892407
    2 -1 2 o 4657.89 4702.85 4.842779
    2 1 2 o 4657.88 4702.84 4.842779
    0 2 3 o 6579.44 6699.36 4.820433
    2 0 3 o 6263.91 6697.67 4.757421
    0 1 5 o 138.12 118.40 4.500857
    1 0 5 o 3219.95 3531.88 4.487835
    1 -2 3 o 2751.03 2780.64 4.460407
    1 2 3 o 2751.03 2780.65 4.460407
    2 -1 3 o 26601.68 27133.94 4.422702
    2 1 3 o 26601.66 27133.93 4.422702
    0 2 4 < 45.39 33.98 4.267349
    2 0 4 o 632.21 794.42 4.223448
    1 -1 5 o 2984.32 2554.85 4.203625
    1 1 5 o 2984.32 2554.84 4.203625
    2 2 0 o 284.30 240.15 4.200563
    2 -2 1 < 45.71 200.61 4.139055
    2 2 1 < 45.71 200.61 4.139055
    0 0 6 o 2681.37 2286.93 4.045923
    1 -2 4 o 12370.30 11258.94 4.011513
    1 2 4 o 12370.31 11258.95 4.011513
    2 -1 4 o 48978.04 48144.39 3.984018
    2 1 4 o 48978.05 48144.40 3.984018
    2 2 2 o 1712.74 1616.63 3.969572
    2 -2 2 o 1712.74 1616.63 3.969572
    0 3 1 o 7951.29 6897.46 3.947782
    3 0 1 o 1062.15 944.89 3.870672
    0 1 6 o 803.37 970.04 3.833977
    1 0 6 o 5700.03 6134.95 3.825919
    0 3 2 < 331.53 431.41 3.799917
    1 3 0 o 5034.50 3256.84 3.787903
    0 2 5 o 2041.03 1790.75 3.774623
    2 0 5 o 109465.73 104953.52 3.744139
    1 3 1 o 8766.09 8240.00 3.742615
    1 -3 1 o 8766.09 8240.00 3.742615
    3 0 2 o 19.92 19.69 3.731003
    2 2 3 o 6951.29 6892.75 3.728167
    2 -2 3 o 6951.28 6892.74 3.728167
    3 1 0 o 64.81 63.77 3.727033
    3 1 1 o 238.78 225.70 3.683869
    3 -1 1 o 238.79 225.70 3.683869
    1 -1 6 o 2587.73 2157.54 3.645225
    1 1 6 o 2587.72 2157.53 3.645225
    1 -3 2 o 2600.09 2871.29 3.615914
    1 3 2 o 2600.09 2871.29 3.615914
    1 2 5 o 4491.01 4875.11 3.594099
    1 -2 5 o 4491.01 4875.11 3.594099
    0 3 3 o 3034.93 3164.49 3.586564
    2 -1 5 o 6874.74 5973.73 3.574285
    2 1 5 o 6874.74 5973.73 3.574285
    3 -1 2 o 833.31 860.28 3.562852
    3 1 2 o 833.30 860.27 3.562852
    3 0 3 o 11119.85 9210.18 3.528446
    2 -2 4 o 1131.35 1204.73 3.453929
    2 2 4 o 1131.35 1204.73 3.453929
    1 3 3 o 1607.98 1934.02 3.430629
    1 -3 3 o 1607.98 1934.02 3.430629
    3 1 3 o 3814.97 3794.37 3.385214
    3 -1 3 o 3814.97 3794.37 3.385214
    0 2 6 o 1573.01 1781.19 3.354788
    0 3 4 o 3323.42 3155.17 3.340427
    2 0 6 o 69923.95 65425.36 3.333332
    0 1 7 o 890.80 828.13 3.331666
    1 0 7 o 222.92 188.48 3.326374
    2 3 0 o 8992.64 11388.59 3.308100
    3 0 4 < 2.82 3.08 3.293322
    3 2 0 o 2884.87 2707.62 3.282436
    2 -3 1 o 11785.54 10740.57 3.277805
    2 3 1 o 11785.53 10740.56 3.277805
    3 2 1 o 11784.80 13870.28 3.252835
    3 -2 1 o 11784.79 13870.27 3.252835
    1 -2 6 o 13074.43 12537.39 3.226138
    1 2 6 o 13074.43 12537.39 3.226138
    1 3 4 o 606.57 615.11 3.213360
    1 -3 4 o 606.57 615.11 3.213360
    2 -1 6 o 3451.33 3495.33 3.211785
    2 1 6 o 3451.34 3495.33 3.211785
    1 -1 7 o 1673.65 1685.02 3.205560
    1 1 7 o 1673.65 1685.02 3.205560
    2 3 2 o 8710.54 8388.00 3.191682
    2 -3 2 o 8710.53 8388.00 3.191682
    2 -2 5 o 1573.64 1563.83 3.176649
    2 2 5 o 1573.65 1563.84 3.176649
    3 -1 4 o 2397.18 2373.62 3.175948
    3 1 4 o 2397.18 2373.62 3.175948
    3 -2 2 o 1234.54 1328.31 3.168615
    3 2 2 o 1234.54 1328.32 3.168615
    0 3 5 o 17281.36 18815.05 3.087677
    2 -3 3 o 4099.06 4114.83 3.062093
    2 3 3 o 4099.06 4114.83 3.062093
    3 0 5 o 734.13 734.69 3.050362
    3 -2 3 o 4066.20 3005.71 3.041706
    3 2 3 o 4066.20 3005.72 3.041706
    0 0 8 o 14341.45 15610.60 3.034442
    0 2 7 o 9374.18 9054.06 3.002684
    0 4 0 o 1681.84 1610.37 3.000782
    2 0 7 o 21471.14 18057.99 2.987270
    1 3 5 o 600.06 505.82 2.986496
    1 -3 5 o 600.06 505.81 2.986496
    0 4 1 o 52.22 51.67 2.978116
    3 -1 5 o 33114.36 32317.33 2.956390
    3 1 5 o 33114.34 32317.31 2.956390
    0 1 8 o 31.58 35.26 2.941890
    4 0 0 o 11251.32 12433.80 2.940625
    1 0 8 o 1460.46 1599.45 2.938245
    4 0 1 o 2464.26 2583.30 2.919284
    2 -2 6 o 3386.48 3297.67 2.914036
    2 2 6 o 3386.47 3297.67 2.914036
    0 4 2 o 3212.23 3140.21 2.913078
    1 2 7 o 10692.09 10159.05 2.909384
    1 -2 7 o 10692.09 10159.05 2.909384
    1 4 0 o 5755.26 5416.05 2.907654
    2 -3 4 o 2488.39 2207.14 2.904609
    2 3 4 o 2488.38 2207.13 2.904609
    2 1 7 o 6684.71 6209.40 2.898844
    2 -1 7 o 6684.69 6209.38 2.898844
    3 2 4 o 1233.92 1195.47 2.887191
    3 -2 4 o 1233.91 1195.47 2.887191
    1 4 1 o 4867.05 4715.39 2.887018
    1 -4 1 o 4867.07 4715.41 2.887018
    4 0 2 o 4573.11 5860.61 2.857947
    4 1 0 o 969.65 1244.71 2.856161
    1 -1 8 o 178.72 243.64 2.853980
    1 1 8 o 178.72 243.64 2.853980
    0 3 6 o 2058.39 2345.01 2.844899
    4 1 1 < 182.84 265.19 2.836596
    4 -1 1 < 182.84 265.19 2.836596
    1 4 2 o 1469.95 1666.05 2.827652
    1 -4 2 o 1469.95 1666.06 2.827652
    3 0 6 o 1743.20 1881.18 2.815632
    0 4 3 o 627.83 686.09 2.813549
    3 3 0 o 1197.45 1527.56 2.800376
    3 -3 1 o 398.22 554.22 2.781927
    3 3 1 o 398.21 554.21 2.781927
    4 -1 2 o 2571.25 3527.17 2.780226
    4 1 2 o 2571.24 3527.16 2.780226
    1 3 6 o 2809.70 3342.32 2.765172
    1 -3 6 o 2809.71 3342.33 2.765172
    4 0 3 o 2152.39 2555.34 2.763784
    3 1 6 o 5707.81 5693.27 2.741224
    3 -1 6 o 5707.83 5693.29 2.741224
    1 4 3 o 597.30 604.34 2.736358
    1 -4 3 o 597.30 604.34 2.736358
    2 3 5 o 6808.44 6799.83 2.733819
    2 -3 5 o 6808.43 6799.82 2.733819
    3 3 2 o 4108.99 5014.67 2.728693
    3 -3 2 o 4108.99 5014.67 2.728693
    3 2 5 o 4548.69 4840.47 2.719282
    3 -2 5 o 4548.69 4840.47 2.719282
    0 2 8 o 1727.16 1656.93 2.707985
    2 0 8 o 8.45 9.85 2.696663
    4 1 3 o 1356.19 1522.50 2.693310
    4 -1 3 o 1356.19 1522.49 2.693310
    0 4 4 o 453.84 501.99 2.689923
    2 2 7 o 6752.83 6943.75 2.674300
    2 -2 7 o 6752.81 6943.73 2.674300
    2 4 0 o 145.20 149.99 2.672956
    2 4 1 < 102.90 82.70 2.656898
    2 -4 1 < 102.90 82.70 2.656898
    3 -3 3 o 1705.68 1755.55 2.646382
    3 3 3 o 1705.68 1755.55 2.646382
    4 0 4 o 1477.94 1521.15 2.646335
    4 2 0 o 180.06 234.93 2.640677
    1 -2 8 o 2337.26 3000.23 2.638953
    1 2 8 o 2337.27 3000.24 2.638953
    0 1 9 o 25.88 21.79 2.631655
    2 -1 8 o 4041.85 3398.42 2.631080
    2 1 8 o 4041.84 3398.41 2.631080
    1 0 9 o 331.93 304.53 2.629045
    4 -2 1 o 2566.04 2944.54 2.625191
    4 2 1 o 2566.05 2944.55 2.625191
    1 -4 4 o 2429.48 2756.55 2.622229
    1 4 4 o 2429.48 2756.55 2.622229
    0 3 7 o 160.81 157.81 2.620562
    2 -4 2 < 117.96 328.00 2.610408
    2 4 2 < 117.96 328.00 2.610408
    3 0 7 < 153.99 256.08 2.597634
    4 -1 4 o 1350.73 1321.89 2.584273
    4 1 4 o 1350.72 1321.88 2.584273
    4 -2 2 o 389.56 466.94 2.580318
    4 2 2 o 389.56 466.94 2.580318
    1 1 9 o 536.95 429.41 2.568164
    1 -1 9 o 536.95 429.41 2.568164
    2 3 6 o 1153.88 1432.42 2.561011
    2 -3 6 o 1153.88 1432.41 2.561011
    1 3 7 o 229.38 294.59 2.557851
    1 -3 7 o 229.37 294.58 2.557851
    0 4 5 o 46.38 34.80 2.552580
    3 -2 6 o 1641.76 1321.42 2.549048
    3 2 6 o 1641.76 1321.41 2.549048
    3 -3 4 o 655.07 496.83 2.542731
    3 3 4 o 655.07 496.83 2.542731
    3 -1 7 o 2318.15 1919.33 2.538861
    3 1 7 o 2318.16 1919.34 2.538861
    2 -4 3 o 1652.84 1371.53 2.538069
    2 4 3 o 1652.84 1371.53 2.538069
    4 0 5 o 68.20 53.98 2.515244
    4 2 3 o 1198.77 1368.70 2.510385
    4 -2 3 o 1198.77 1368.70 2.510385
    1 4 5 < 391.40 530.82 2.494518
    1 -4 5 < 391.39 530.82 2.494518
    4 -1 5 o 411.90 359.90 2.461775
    4 1 5 o 411.90 359.90 2.461775
    0 2 9 o 675.06 588.62 2.460234
    2 -2 8 o 3181.79 2787.48 2.459764
    2 2 8 o 3181.78 2787.47 2.459764
    2 0 9 o 1428.75 1285.52 2.451734
    2 -4 4 < 351.35 196.37 2.446203
    2 4 4 < 351.35 196.37 2.446203
    0 0 10 o 0.67 0.43 2.427554
    3 3 5 o 537.52 450.58 2.425785
    3 -3 5 o 537.52 450.59 2.425785
    4 2 4 o 10593.04 11034.92 2.421390
    4 -2 4 o 10593.04 11034.92 2.421390
    0 3 8 o 707.19 815.54 2.417756
    0 4 6 o 447.01 479.53 2.410217
    1 2 9 o 1048.56 1113.63 2.408123
    1 -2 9 o 1048.57 1113.64 2.408123
    2 1 9 o 5510.80 5828.58 2.402136
    2 -1 9 o 5510.79 5828.56 2.402136
    3 0 8 o 2294.83 2592.07 2.399714
    2 3 7 o 7013.99 6227.33 2.393691
    2 -3 7 o 7013.98 6227.33 2.393691
    0 5 1 o 11.36 10.64 2.388973
    3 -2 7 o 920.08 1240.72 2.383914
    3 2 7 o 920.07 1240.72 2.383914
    3 4 0 o 2429.39 3260.58 2.382962
    0 1 10 o 1605.51 1903.48 2.379380
    4 0 6 o 3131.35 3559.23 2.378711
    1 0 10 o 574.58 606.87 2.377450
    3 -4 1 o 844.23 1078.85 2.371563
    3 4 1 o 844.23 1078.85 2.371563
    4 3 0 o 183.62 229.27 2.369490
    1 3 8 o 811.41 856.86 2.368244
    1 -3 8 o 811.40 856.85 2.368244
    1 -4 6 o 1383.77 1516.12 2.361157
    1 4 6 o 1383.77 1516.12 2.361157
    4 3 1 o 3848.79 4281.99 2.358283
    4 -3 1 o 3848.79 4281.99 2.358283
    0 5 2 o 2482.21 2125.02 2.355007
    3 1 8 o 6588.07 4409.07 2.353148
    3 -1 8 o 6588.09 4409.08 2.353148
    1 5 0 o 510.80 336.86 2.352139
    2 4 5 o 12.94 14.04 2.341547
    2 -4 5 o 12.94 14.04 2.341547
    5 0 1 o 460.18 499.45 2.341531
    1 5 1 o 1246.73 1400.65 2.341174
    1 -5 1 o 1246.73 1400.65 2.341174
    3 -4 2 o 5223.43 6096.10 2.338324
    3 4 2 o 5223.43 6096.10 2.338324
    4 -1 6 o 268.10 338.06 2.333333
    4 1 6 o 268.10 338.06 2.333333
    1 1 10 o 772.48 1054.78 2.332144
    1 -1 10 o 772.48 1054.78 2.332144
    4 3 2 o 737.05 1145.54 2.325591
    4 -3 2 o 737.05 1145.54 2.325591
    4 2 5 o 1200.07 1308.71 2.319757
    4 -2 5 o 1200.07 1308.71 2.319757
    5 0 2 o 121.81 180.58 2.309521
    1 -5 2 o 277.38 411.21 2.309180
    1 5 2 o 277.38 411.21 2.309180
    5 1 0 o 3816.62 5616.64 2.308579
    3 3 6 o 4604.41 4535.12 2.302619
    3 -3 6 o 4604.40 4535.11 2.302619
    0 5 3 o 6828.33 7077.42 2.301480
    5 -1 1 o 3661.33 4854.06 2.298210
    5 1 1 o 3661.34 4854.07 2.298210
    3 -4 3 < 492.60 893.18 2.285902
    3 4 3 < 492.60 893.18 2.285902
    4 3 3 o 137.92 100.74 2.274002
    4 -3 3 o 137.92 100.74 2.274002
    2 2 9 o 4149.86 4493.38 2.269652
    2 -2 9 o 4149.87 4493.38 2.269652
    0 4 7 o 5485.11 5956.08 2.269199
    5 -1 2 o 2858.11 3177.04 2.267922
    5 1 2 o 2858.11 3177.05 2.267922
    5 0 3 o 4022.38 3515.44 2.258971
    1 -5 3 o 7644.39 6671.98 2.258651
    1 5 3 o 7644.39 6671.98 2.258651
    0 2 10 < 649.46 1508.09 2.250428
    2 0 10 o 5627.88 5435.15 2.243917
    4 0 7 o 359.10 352.36 2.242848
    0 3 9 o 3182.79 4473.76 2.236525
    2 3 8 o 3168.67 4464.59 2.236172
    2 -3 8 o 3168.68 4464.60 2.236172
    0 5 4 o 8654.02 9676.09 2.232324
    2 -4 6 o 397.41 438.05 2.230203
    2 4 6 o 397.41 438.05 2.230203
    3 2 8 o 186.16 207.52 2.228195
    3 -2 8 o 186.15 207.52 2.228195
    1 4 7 o 5271.72 5876.79 2.228116
    1 -4 7 o 5271.71 5876.78 2.228116
    2 5 0 o 1496.66 1567.34 2.222599
    3 0 9 o 26.24 27.77 2.222221
    5 -1 3 o 385.24 480.69 2.219998
    5 1 3 o 385.24 480.68 2.219998
    3 4 4 o 852.83 1066.52 2.218100
    3 -4 4 o 852.83 1066.52 2.218100
    2 -5 1 o 712.80 680.80 2.213341
    2 5 1 o 712.80 680.80 2.213341
    4 -2 6 o 3025.08 3193.10 2.211351
    4 2 6 o 3025.09 3193.10 2.211351
    1 -2 10 o 3373.44 3566.30 2.210338
    1 2 10 o 3373.41 3566.28 2.210338
    4 3 4 o 413.70 479.14 2.207223
    4 -3 4 o 413.70 479.14 2.207223
    2 1 10 o 1388.62 1522.84 2.205706
    2 -1 10 o 1388.62 1522.85 2.205706
    4 1 7 o 528.96 606.00 2.204690
    4 -1 7 o 528.97 606.01 2.204690
    1 -3 9 o 913.23 1275.99 2.197160
    1 3 9 o 913.23 1275.99 2.197160
    5 0 4 o 359.85 416.35 2.193470
    1 -5 4 o 4222.84 4843.98 2.193177
    1 5 4 o 4222.85 4843.98 2.193177
    5 2 0 o 2220.96 2448.62 2.190245
    2 5 2 o 8760.65 8176.59 2.186247
    2 -5 2 o 8760.63 8176.57 2.186247
    3 -1 9 o 4934.72 4547.46 2.185089
    3 1 9 o 4934.72 4547.46 2.185089
    5 -2 1 o 215.90 227.54 2.181385
    5 2 1 o 215.90 227.55 2.181385
    3 -3 7 o 1545.89 2044.23 2.178726
    3 3 7 o 1545.89 2044.23 2.178726
    0 1 11 < 791.48 1810.68 2.170487
    1 0 11 < 5.85 12.47 2.169022
    5 1 4 < 143.58 480.39 2.157738
    5 -1 4 < 143.58 480.39 2.157738
    5 -2 2 < 70.76 365.04 2.155434
    5 2 2 < 70.76 365.05 2.155434
    0 5 5 < 790.20 1043.46 2.151938
    2 5 3 o 3299.27 2648.37 2.143221
    2 -5 3 o 3299.28 2648.37 2.143221
    3 -4 5 o 12565.45 12428.35 2.139187
    3 4 5 o 12565.45 12428.36 2.139187
    1 1 11 o 2589.70 2627.05 2.134452
    1 -1 11 o 2589.71 2627.06 2.134452
    0 4 8 o 1193.51 1230.45 2.133675
    4 -3 5 < 415.35 727.73 2.129425
    4 3 5 < 415.35 727.74 2.129425
    2 4 7 o 668.49 681.20 2.117080
    2 -4 7 o 668.49 681.20 2.117080
    5 0 5 o 88.05 89.72 2.117068
    1 -5 5 o 3465.80 3538.81 2.116805
    1 5 5 o 3465.79 3538.80 2.116805
    5 -2 3 o 2171.46 1631.53 2.114168
    5 2 3 o 2171.46 1631.53 2.114168
    4 0 8 o 37986.58 24513.21 2.111724
    2 -2 10 o 824.84 1383.29 2.101812
    2 2 10 o 824.84 1383.28 2.101812
    4 2 7 o 941.74 1506.17 2.100933
    4 -2 7 o 941.74 1506.18 2.100933
    4 4 0 o 767.02 1201.83 2.100282
    1 4 8 o 195.08 287.85 2.099414
    1 -4 8 o 195.07 287.84 2.099414
    4 4 1 o 105.41 64.64 2.092465
    4 -4 1 o 105.41 64.64 2.092465
    2 -3 9 o 1024.89 831.80 2.090472
    2 3 9 o 1024.89 831.80 2.090472
    2 5 4 o 7850.79 7591.18 2.087041
    2 -5 4 o 7850.78 7591.17 2.087041
    5 -1 5 o 950.82 939.59 2.084887
    5 1 5 o 950.82 939.59 2.084887
    3 2 9 o 1253.25 1215.17 2.083951
    3 -2 9 o 1253.25 1215.18 2.083951
    4 -1 8 o 900.97 1149.41 2.079783
    4 1 8 o 900.98 1149.41 2.079783
    0 3 10 o 1746.58 2667.96 2.075423
    0 2 11 o 1745.09 2665.21 2.071272
    4 4 2 o 23.81 29.88 2.069528
    4 -4 2 o 23.81 29.87 2.069528
    2 0 11 o 1863.45 2407.44 2.066192
    0 5 6 o 420.22 551.84 2.064557
    3 0 10 o 256.04 329.62 2.063977
    5 -2 4 o 1109.21 892.41 2.060184
    5 2 4 o 1109.21 892.41 2.060184
    3 3 8 o 4387.72 3632.25 2.057945
    3 -3 8 o 4387.73 3632.27 2.057945
    3 4 6 o 4435.01 3603.00 2.053289
    3 -4 6 o 4435.00 3602.99 2.053289
    3 5 0 o 2799.35 2671.86 2.047350
    4 3 6 o 8799.37 9233.93 2.044652
    4 -3 6 o 8799.38 9233.94 2.044652
    1 3 10 o 995.85 1051.22 2.043851
    1 -3 10 o 995.86 1051.23 2.043851
    3 5 1 o 2278.60 2283.12 2.040107
    3 -5 1 o 2278.60 2283.12 2.040107
    1 -2 11 o 2974.32 2967.53 2.039887
    1 2 11 o 2974.31 2967.52 2.039887
    2 1 11 o 728.02 597.38 2.036244
    2 -1 11 o 728.01 597.37 2.036244
    3 1 10 o 6398.29 5720.53 2.034123
    3 -1 10 o 6398.28 5720.52 2.034123
    5 0 6 o 392.63 353.10 2.033705
    1 -5 6 o 2433.28 2205.91 2.033472
    1 5 6 o 2433.28 2205.91 2.033472
    4 4 3 o 327.90 305.56 2.032920
    4 -4 3 o 327.90 305.56 2.032920
    5 3 0 < 79.41 330.73 2.027934
    0 0 12 o 1055.37 998.94 2.022962
    2 -5 5 o 3247.20 3778.45 2.020905
    2 5 5 o 3247.20 3778.45 2.020905
    5 3 1 o 3392.40 3947.41 2.020895
    5 -3 1 o 3392.41 3947.42 2.020895
    3 -5 2 o 741.54 960.01 2.018832
    3 5 2 o 741.55 960.01 2.018832
    0 4 9 o 475.49 505.94 2.006011
    2 4 8 o 180.01 191.54 2.005756
    2 -4 8 o 180.01 191.53 2.005756
    5 1 6 o 1219.93 1287.54 2.005128
    5 -1 6 o 1219.93 1287.54 2.005128
    0 6 0 < 84.87 110.50 2.000522
    5 -3 2 < 654.74 848.24 2.000209
    5 3 2 < 654.74 848.25 2.000209
    5 2 5 o 2870.25 2416.14 1.996493
    5 -2 5 o 2870.25 2416.14 1.996493
    0 1 12 o 636.37 506.72 1.994829
    0 6 1 o 3656.83 2945.32 1.993763
    1 0 12 o 388.20 331.11 1.993691
    4 2 8 o 8385.18 7615.86 1.992009
    4 -2 8 o 8385.17 7615.86 1.992009
    4 0 9 < 902.08 1208.11 1.987737
    3 5 3 o 77.99 109.37 1.984806
    3 -5 3 o 77.99 109.38 1.984806
    4 4 4 o 1245.03 1746.02 1.984786
    4 -4 4 o 1245.03 1746.03 1.984786
    1 -4 9 < 126.16 148.79 1.977460
    1 4 9 < 126.16 148.79 1.977460
    0 6 2 o 2256.71 2394.87 1.973891
    0 5 7 o 61.08 64.82 1.973843
    1 6 0 o 367.16 312.86 1.972201
    5 -3 3 o 221.74 254.22 1.967100
    5 3 3 o 221.74 254.22 1.967100
    1 1 12 o 1012.49 1172.97 1.966746
    1 -1 12 o 1012.48 1172.96 1.966746
    1 -6 1 o 78.72 83.43 1.965725
    1 6 1 o 78.72 83.43 1.965725
    3 4 7 o 1617.86 1602.22 1.963989
    3 -4 7 o 1617.85 1602.21 1.963989
    4 1 9 o 3572.01 4896.69 1.961029
    4 -1 9 o 3572.01 4896.69 1.961029
    6 0 0 o 548.21 752.75 1.960417
    2 -3 10 o 913.06 770.23 1.957136
    2 3 10 o 913.06 770.23 1.957136
    4 -3 7 o 7993.28 6686.44 1.956427
    4 3 7 o 7993.27 6686.43 1.956427
    6 0 1 o 109.16 86.73 1.954055
    2 2 11 o 3471.71 2728.88 1.953655
    2 -2 11 o 3471.68 2728.86 1.953655
    3 -2 10 o 702.66 577.82 1.951781
    3 2 10 o 702.66 577.82 1.951781
    2 5 6 < 57.99 48.80 1.948017
    2 -5 6 < 57.99 48.80 1.948017
    5 0 7 < 652.65 569.30 1.946830
    1 6 2 < 71.25 62.15 1.946671
    1 -6 2 < 71.25 62.15 1.946671
    1 -5 7 < 162.72 141.94 1.946625
    1 5 7 < 162.72 141.94 1.946625
    3 -3 9 o 302.83 193.15 1.942690
    3 3 9 o 302.83 193.15 1.942690
    0 6 3 o 3870.29 2429.46 1.942052
    3 -5 4 o 157.04 100.71 1.939935
    3 5 4 o 157.05 100.71 1.939935
    6 0 2 < 330.46 379.07 1.935336
    6 1 0 < 99.07 120.62 1.934781
    0 3 11 < 190.64 169.57 1.932407
    6 1 1 o 2029.30 2192.56 1.928665
    6 -1 1 o 2029.30 2192.55 1.928665
    4 4 5 o 1435.97 1561.74 1.927646
    4 -4 5 o 1435.97 1561.73 1.927646
    5 -2 6 o 1483.29 1523.01 1.926123
    5 2 6 o 1483.30 1523.01 1.926123
    5 3 4 o 173.96 209.27 1.923394
    5 -3 4 o 173.96 209.27 1.923394
    3 0 11 o 7141.93 8591.60 1.923158
    5 -1 7 o 1611.76 2032.89 1.921717
    5 1 7 o 1611.77 2032.90 1.921717
    0 2 12 o 1538.00 2240.70 1.916989
    1 -6 3 o 219.69 311.19 1.916111
    1 6 3 o 219.69 311.19 1.916111
    2 0 12 o 3752.82 3842.95 1.912959
    6 1 2 o 286.92 238.90 1.910659
    6 -1 2 o 286.92 238.90 1.910659
    1 -3 11 o 1261.65 1414.55 1.906846
    1 3 11 o 1261.65 1414.55 1.906846
    6 0 3 o 2785.79 3280.18 1.905298
    0 6 4 < 2.62 5.82 1.899959
    3 1 11 < 88.65 204.61 1.898939
    3 -1 11 < 88.65 204.61 1.898939
    2 4 9 < 6.47 14.93 1.898607
    2 -4 9 < 6.47 14.93 1.898607
    2 6 0 o 358.85 338.15 1.893951
    1 2 12 o 2175.16 2153.14 1.892027
    1 -2 12 o 2175.16 2153.13 1.892027
    2 1 12 o 1359.79 1338.36 1.889119
    2 -1 12 o 1359.78 1338.35 1.889119
    2 6 1 o 4351.62 4241.72 1.888213
    2 -6 1 o 4351.62 4241.72 1.888213
    0 4 10 o 212.60 203.62 1.887311
    4 2 9 o 431.01 412.79 1.886935
    4 -2 9 o 431.01 412.80 1.886935
    3 -5 5 o 122.14 109.43 1.886480
    3 5 5 o 122.14 109.43 1.886480
    0 5 8 < 216.95 352.00 1.882696
    6 -1 3 < 325.17 545.42 1.881739
    6 1 3 < 325.17 545.42 1.881739
    1 6 4 < 213.97 222.91 1.875647
    1 -6 4 < 213.97 222.91 1.875647
    3 -4 8 o 127.79 97.78 1.874140
    3 4 8 o 127.79 97.78 1.874140
    4 0 10 o 11523.28 9922.42 1.872069
    2 6 2 o 1846.11 1612.16 1.871307
    2 -6 2 o 1846.11 1612.16 1.871307
    2 5 7 o 105.05 91.74 1.871266
    2 -5 7 o 105.05 91.74 1.871266
    5 -3 5 o 114.08 99.63 1.871258
    5 3 5 o 114.08 99.63 1.871258
    4 -3 8 < 374.30 501.68 1.867565
    4 3 8 < 374.29 501.67 1.867565
    6 0 4 o 406.66 509.67 1.865502
    4 4 6 o 937.52 1364.72 1.864083
    4 -4 6 o 937.52 1364.72 1.864083
    6 2 0 o 22.41 32.63 1.863517
    1 -4 10 o 973.02 1419.22 1.863477
    1 4 10 o 973.01 1419.22 1.863477
    4 5 0 o 1355.20 1460.10 1.859636
    5 0 8 o 3997.21 4264.93 1.859212
    1 -5 8 o 95.18 101.56 1.859033
    1 5 8 o 95.18 101.56 1.859033
    6 2 1 o 984.57 1069.66 1.858050
    6 -2 1 o 984.57 1069.66 1.858050
    4 5 1 < 214.75 231.25 1.854203
    4 -5 1 < 214.75 231.25 1.854203
    5 -2 7 o 109.74 91.21 1.851835
    5 2 7 o 109.74 91.21 1.851835
    5 4 0 o 2320.33 1883.87 1.851389
    4 1 10 o 1191.93 928.83 1.849707
    4 -1 10 o 1191.93 928.83 1.849707
    0 6 5 o 431.95 336.60 1.849656
    5 4 1 o 1415.95 1408.46 1.846028
    5 -4 1 o 1415.95 1408.47 1.846028
    0 1 13 o 493.51 562.31 1.845154
    1 0 13 o 59.52 72.83 1.844253
    2 6 3 o 155.92 190.78 1.844112
    2 -6 3 o 155.92 190.78 1.844112
    6 1 4 o 2775.68 3688.66 1.843371
    6 -1 4 o 2775.69 3688.68 1.843371
    6 2 2 o 2429.88 3260.11 1.841934
    6 -2 2 o 2429.88 3260.11 1.841934
    4 -5 2 o 2190.51 2345.74 1.838187
    4 5 2 o 2190.51 2345.74 1.838187
    5 1 8 o 6838.34 7273.60 1.837302
    5 -1 8 o 6838.33 7273.59 1.837302
    2 3 11 o 1261.77 1372.97 1.835849
    2 -3 11 o 1261.78 1372.98 1.835849
    3 -3 10 o 766.53 694.62 1.834294
    3 3 10 o 766.52 694.62 1.834294
    3 -2 11 o 66.66 165.08 1.831427
    3 2 11 o 66.66 165.08 1.831427
    5 -4 2 o 1735.44 3949.97 1.830220
    5 4 2 o 1735.44 3949.97 1.830220
    1 6 5 < 99.59 136.15 1.827203
    1 -6 5 < 99.59 136.15 1.827203
    3 5 6 < 90.98 145.14 1.826780
    3 -5 6 < 90.98 145.14 1.826780
    1 -1 13 o 301.54 471.47 1.822862
    1 1 13 o 301.54 471.47 1.822862
    2 2 12 o 783.47 1224.99 1.822612
    2 -2 12 o 783.47 1225.00 1.822612
    6 0 5 < 288.74 313.52 1.817819
    6 -2 3 < 470.65 768.73 1.815982
    6 2 3 < 470.65 768.72 1.815982
    5 3 6 o 562.74 740.60 1.812947
    5 -3 6 o 562.75 740.60 1.812947
    4 5 3 o 1029.73 1356.42 1.812391
    4 -5 3 o 1029.74 1356.43 1.812391
    2 6 4 < 583.45 923.95 1.807957
    2 -6 4 < 583.45 923.95 1.807957
    0 3 12 < 125.86 426.19 1.805324
    5 4 3 < 9.88 108.61 1.804754
    5 -4 3 < 9.88 108.61 1.804754
    3 0 12 o 178.03 173.34 1.797775
    6 1 5 o 1832.09 1777.95 1.797325
    6 -1 5 o 1832.10 1777.96 1.797325
    2 -4 10 o 1775.69 1723.22 1.797049
    2 4 10 o 1775.69 1723.22 1.797049
    4 4 7 o 290.88 282.88 1.796500
    4 -4 7 o 290.88 282.87 1.796500
    0 6 6 o 734.82 636.14 1.793282
    0 5 9 o 1209.18 1046.79 1.793246
    2 5 8 o 1569.03 1369.10 1.793064
    2 -5 8 o 1569.02 1369.09 1.793064
    4 -2 10 o 2007.49 2216.25 1.787142
    4 2 10 o 2007.50 2216.26 1.787142
    3 4 9 o 602.09 681.47 1.785847
    3 -4 9 o 602.09 681.47 1.785847
    1 3 12 < 562.37 638.01 1.784428
    1 -3 12 < 562.37 638.02 1.784428
    0 2 13 o 10.92 8.85 1.783034
    3 6 0 o 212.33 188.91 1.781971
    6 2 4 o 1021.12 976.00 1.781426
    6 -2 4 o 1021.13 976.00 1.781426
    4 3 9 o 452.07 437.81 1.780156
    4 -3 9 o 452.07 437.81 1.780156
    2 0 13 o 2961.37 2781.42 1.779791
    4 -5 4 o 629.76 682.58 1.778035
    4 5 4 o 629.76 682.58 1.778035
    3 1 12 o 0.71 0.77 1.777944
    3 -1 12 o 0.71 0.77 1.777944
    0 4 11 o 14.33 18.19 1.777849
    3 -6 1 o 956.06 1222.33 1.777189
    3 6 1 o 956.06 1222.33 1.777189
    5 -2 8 o 473.33 645.42 1.775946
    5 2 8 o 473.33 645.42 1.775946
    5 0 9 o 2174.20 2311.67 1.772917
    1 6 6 o 765.59 814.00 1.772797
    1 -6 6 o 765.59 814.00 1.772797
    1 -5 9 o 1062.88 1130.08 1.772762
    1 5 9 o 1062.88 1130.08 1.772762
    5 4 4 o 366.45 394.97 1.770822
    5 -4 4 o 366.46 394.97 1.770822
    4 0 11 o 3451.21 3402.52 1.765091
    2 -6 5 o 1704.47 1636.90 1.764452
    2 6 5 o 1704.46 1636.89 1.764452
    6 0 6 o 184.67 178.56 1.764223
    3 6 2 o 999.95 914.48 1.763072
    3 -6 2 o 999.96 914.49 1.763072
    3 -5 7 o 278.21 249.78 1.763037
    3 5 7 o 278.21 249.78 1.763037
    1 2 13 o 118.30 106.21 1.762895
    1 -2 13 o 118.30 106.21 1.762895
    2 1 13 < 455.24 805.99 1.760542
    2 -1 13 < 455.24 805.99 1.760542
    6 3 0 < 588.10 1041.22 1.760452
    1 -4 11 < 810.23 1052.65 1.757883
    1 4 11 < 810.23 1052.65 1.757883
    6 -3 1 < 104.70 124.51 1.755841
    6 3 1 < 104.70 124.51 1.755841
    5 1 9 < 31.83 33.47 1.753888
    5 -1 9 < 31.82 33.47 1.753888
    5 3 7 o 3132.06 4080.93 1.750593
    5 -3 7 o 3132.06 4080.94 1.750593
    4 1 11 o 1341.80 2282.86 1.746310
    4 -1 11 o 1341.80 2282.87 1.746310
    6 1 6 o 522.41 913.75 1.745470
    6 -1 6 o 522.41 913.76 1.745470
    6 3 2 < 424.36 381.97 1.742222
    6 -3 2 < 424.36 381.97 1.742222
    3 -6 3 < 501.03 290.21 1.740272
    3 6 3 < 501.03 290.22 1.740272
    6 2 5 < 206.44 126.13 1.739765
    6 -2 5 < 206.44 126.13 1.739765
    4 -5 5 < 474.73 752.04 1.736606
    4 5 5 < 474.73 752.04 1.736606
    0 0 14 o 454.73 493.20 1.733967
    3 -3 11 o 1491.03 1599.66 1.733322
    3 3 11 o 1491.03 1599.66 1.733322
    0 6 7 o 454.79 481.73 1.732868
    5 4 5 < 945.14 1003.98 1.729884
    5 -4 5 < 945.13 1003.98 1.729884
    4 4 8 o 1888.19 1828.45 1.726965
    4 -4 8 o 1888.18 1828.44 1.726965
    2 3 12 o 1365.40 1332.55 1.725844
    2 -3 12 o 1365.40 1332.55 1.725844
    3 -2 12 o 2578.08 3603.75 1.722169
    3 2 12 o 2578.08 3603.74 1.722169
    6 3 3 o 600.81 966.27 1.720212
    6 -3 3 o 600.81 966.27 1.720212
    0 1 14 o 1769.23 1751.13 1.716153
    1 0 14 o 226.10 217.96 1.715428
    2 6 6 o 1728.28 1666.09 1.715314
    2 -6 6 o 1728.28 1666.08 1.715314
    2 5 9 o 2274.11 2186.58 1.715283
    2 -5 9 o 2274.10 2186.57 1.715283
    1 -6 7 o 889.38 868.15 1.714364
    1 6 7 o 889.38 868.14 1.714364
    0 7 1 < 0.42 0.56 1.710471
    3 -6 4 < 70.65 101.17 1.709789
    3 6 4 < 70.65 101.17 1.709789
    0 5 10 o 8370.60 10927.53 1.706940
    6 0 7 o 371.31 483.77 1.706607
    2 2 13 o 1197.01 1574.28 1.706340
    2 -2 13 o 1197.00 1574.27 1.706340
    2 4 11 < 519.30 742.51 1.701794
    2 -4 11 < 519.30 742.51 1.701794
    3 -4 10 < 224.46 377.42 1.700555
    3 4 10 < 224.46 377.42 1.700555
    5 2 9 < 69.30 126.46 1.700280
    5 -2 9 < 69.30 126.46 1.700280
    1 -1 14 o 436.39 524.43 1.698173
    1 1 14 o 436.39 524.43 1.698173
    0 7 2 o 52.77 58.85 1.697873
    3 -5 8 o 1676.28 1629.46 1.697176
    3 5 8 o 1676.28 1629.46 1.697176
    1 7 0 o 13.09 12.79 1.696798
    4 3 10 o 4654.71 4306.49 1.695638
    4 -3 10 o 4654.71 4306.49 1.695638
    4 2 11 o 55.86 57.19 1.693373
    4 -2 11 o 55.86 57.20 1.693373
    1 7 1 o 1025.38 1073.68 1.692668
    1 -7 1 o 1025.38 1073.68 1.692668
    6 2 6 o 377.08 394.85 1.692607
    6 -2 6 o 377.08 394.85 1.692607
    0 3 13 o 423.18 439.61 1.692129
    6 3 4 o 1545.50 1557.51 1.690754
    6 -3 4 o 1545.51 1557.51 1.690754
    4 -5 6 o 467.81 471.80 1.689698
    4 5 6 o 467.81 471.80 1.689698
    6 1 7 o 725.60 731.79 1.689614
    6 -1 7 o 725.61 731.79 1.689614
    5 0 10 o 41.98 42.28 1.689379
    1 5 10 o 870.63 876.93 1.689245
    1 -5 10 o 870.63 876.92 1.689245
    5 3 8 o 2397.19 2669.26 1.686067
    5 -3 8 o 2397.19 2669.25 1.686067
    3 0 13 o 2.82 3.15 1.685908
    5 4 6 < 311.64 467.52 1.683504
    5 -4 6 < 311.64 467.52 1.683504
    1 -7 2 < 638.15 990.26 1.680457
    1 7 2 < 638.16 990.26 1.680457
    5 5 0 < 14.26 22.12 1.680225
    0 7 3 o 53.80 65.35 1.677483
    0 4 12 o 0.07 0.08 1.677394
    7 0 1 o 1559.73 1911.54 1.676346
    5 5 1 o 1199.60 1470.19 1.676215
    5 -5 1 o 1199.61 1470.19 1.676215
    1 3 13 o 496.83 451.21 1.674886
    1 -3 13 o 496.83 451.21 1.674886
    5 -1 10 o 4324.65 3678.75 1.672891
    5 1 10 o 4324.63 3678.73 1.672891
    3 6 5 o 1743.67 1483.24 1.672853
    3 -6 5 o 1743.67 1483.24 1.672853
    0 6 8 o 53.02 65.82 1.670213
    3 -1 13 o 2237.98 2656.26 1.669521
    3 1 13 o 2237.98 2656.26 1.669521
    4 0 12 o 12017.29 9406.46 1.666666
    0 2 14 o 11.97 10.00 1.665833
    7 0 2 o 0.47 0.58 1.664482
    5 5 2 o 499.67 612.14 1.664354
    5 -5 2 o 499.67 612.14 1.664354
    7 1 0 o 102.69 125.81 1.664129
    2 0 14 o 2230.80 2409.05 1.663187
    2 -6 7 o 1370.90 1347.16 1.662218
    2 6 7 o 1370.89 1347.15 1.662218
    1 7 3 o 478.86 486.08 1.660680
    1 -7 3 o 478.86 486.08 1.660680
    1 -4 12 o 2032.16 2062.79 1.660594
    1 4 12 o 2032.16 2062.78 1.660594
    7 1 1 o 2561.75 2667.41 1.660233
    7 -1 1 o 2561.76 2667.42 1.660233
    4 4 9 < 629.59 615.99 1.657148
    4 -4 9 < 629.59 615.99 1.657148
    6 3 5 < 449.84 664.51 1.655012
    6 -3 5 < 449.84 664.50 1.655012
    4 6 0 < 0.77 1.24 1.654050
    1 6 8 < 250.49 467.94 1.653626
    1 -6 8 < 250.49 467.94 1.653626
    4 1 12 o 572.12 575.34 1.650828
    4 -1 12 o 572.12 575.34 1.650828
    4 6 1 o 2562.99 2914.25 1.650224
    4 -6 1 o 2562.99 2914.25 1.650224
    0 7 4 o 127.29 144.73 1.650131
    1 2 14 o 22.05 27.67 1.649375
    1 -2 14 o 22.05 27.67 1.649375
    7 -1 2 o 2757.58 3498.96 1.648706
    7 1 2 o 2757.58 3498.96 1.648706
    2 1 14 o 49.76 72.70 1.647447
    2 -1 14 o 49.76 72.70 1.647447
    6 0 8 < 519.78 626.72 1.646661
    2 7 0 < 3.88 3.61 1.646191
    7 0 3 < 26.24 25.26 1.645257
    5 5 3 < 214.43 204.48 1.645134
    5 -5 3 < 214.43 204.48 1.645134
    2 -7 1 < 266.43 383.88 1.642419
    2 7 1 < 266.43 383.88 1.642419
    6 2 7 < 10.04 11.26 1.641529
    6 -2 7 < 10.04 11.26 1.641529
    6 4 0 < 24.56 23.56 1.641218
    3 -3 12 o 91.35 98.93 1.639843
    3 3 12 o 91.35 98.94 1.639843
    2 5 10 o 692.48 773.82 1.639292
    2 -5 10 o 692.48 773.82 1.639292
    4 6 2 o 748.81 845.12 1.638902
    4 -6 2 o 748.81 845.12 1.638902
    4 5 7 o 453.68 512.04 1.638875
    4 -5 7 o 453.68 512.03 1.638875
    6 4 1 o 1109.76 1404.15 1.637480
    6 -4 1 o 1109.76 1404.14 1.637480
    1 7 4 o 3887.26 3719.61 1.634129
    1 -7 4 o 3887.26 3719.61 1.634129
    5 -4 7 o 1281.21 1246.06 1.633221
    5 4 7 o 1281.21 1246.06 1.633221
    6 1 8 < 269.00 610.93 1.631381
    6 -1 8 < 269.00 610.94 1.631381
    2 7 2 < 23.60 53.60 1.631257
    2 -7 2 < 23.60 53.60 1.631257
    3 -6 6 < 107.90 253.05 1.630802
    3 6 6 < 107.90 253.05 1.630802
    3 -5 9 < 364.71 835.80 1.630775
    3 5 9 < 364.71 835.80 1.630775
    7 -1 3 o 506.52 1362.88 1.630016
    7 1 3 o 506.52 1362.87 1.630016
    6 -4 2 < 271.11 756.93 1.626417
    6 4 2 < 271.12 756.93 1.626417
    5 2 10 < 9.89 27.17 1.626181
    5 -2 10 < 9.89 27.17 1.626181
    2 3 13 < 85.04 233.68 1.626160
    2 -3 13 < 85.04 233.68 1.626160
    0 5 11 < 28.37 31.57 1.624678
    3 -2 13 < 803.52 1111.70 1.623084
    3 2 13 < 803.52 1111.70 1.623084
    5 -3 9 < 727.43 607.24 1.620912
    5 3 9 < 727.43 607.24 1.620912
    4 6 3 < 913.17 765.45 1.620540
    4 -6 3 < 913.17 765.45 1.620540
    7 0 4 < 426.25 343.14 1.619428
    5 5 4 < 1.45 1.30 1.619310
    5 -5 4 < 1.45 1.30 1.619310
    3 -4 11 < 26.24 23.59 1.619170
    3 4 11 < 26.25 23.59 1.619170
    7 2 0 < 309.04 323.24 1.618129
    0 7 5 < 213.70 118.03 1.616855
    4 3 11 o 993.32 998.45 1.614924
    4 -3 11 o 993.33 998.45 1.614924
    7 -2 1 o 2016.52 2107.25 1.614546
    7 2 1 o 2016.52 2107.25 1.614546
    6 3 6 o 1381.33 1488.98 1.614260
    6 -3 6 o 1381.33 1488.98 1.614260
    2 -7 3 o 1178.01 1306.62 1.613148
    2 7 3 o 1178.01 1306.62 1.613148
    2 4 12 o 708.03 785.34 1.613069
    2 -4 12 o 708.04 785.34 1.613069
    5 0 11 < 152.17 121.29 1.609514
    1 -5 11 < 1274.99 1016.23 1.609398
    1 5 11 < 1274.98 1016.22 1.609398
    6 4 3 < 353.84 291.36 1.608467
    6 -4 3 < 353.84 291.36 1.608467
    0 6 9 o 70.75 67.26 1.606811
    2 6 8 o 1597.71 1518.83 1.606680
    2 -6 8 o 1597.71 1518.82 1.606680
    4 2 12 o 147.35 141.48 1.605892
    4 -2 12 o 147.35 141.48 1.605892
    7 1 4 < 81.97 86.14 1.604887
    7 -1 4 < 81.97 86.14 1.604887
    7 2 2 < 131.29 122.38 1.603939
    7 -2 2 < 131.29 122.38 1.603939
    0 1 15 < 785.62 826.59 1.603857
    1 0 15 < 443.14 476.31 1.603265
    2 2 14 < 423.98 520.48 1.602780
    2 -2 14 < 423.98 520.48 1.602780
    1 7 5 < 317.33 472.34 1.601793
    1 -7 5 < 317.33 472.34 1.601793
    4 -6 4 o 305.36 418.22 1.595841
    4 6 4 o 305.36 418.22 1.595841
    5 1 11 o 1415.55 1969.76 1.595237
    5 -1 11 o 1415.55 1969.76 1.595237
    1 6 9 o 2346.22 2296.76 1.592025
    1 -6 9 o 2346.21 2296.76 1.592025
    0 3 14 o 0.38 0.38 1.590985
    1 1 15 o 856.93 852.19 1.589152
    1 -1 15 o 856.93 852.19 1.589152
    2 7 4 o 152.84 144.53 1.588779
    2 -7 4 o 152.83 144.53 1.588779
    4 4 10 o 432.81 405.88 1.588325
    4 -4 10 o 432.81 405.88 1.588325
    6 2 8 o 1218.66 1200.57 1.587974
    6 -2 8 o 1218.66 1200.57 1.587974
    7 0 5 o 28.19 27.77 1.587940
    5 5 5 o 61.75 60.83 1.587829
    5 -5 5 o 61.75 60.83 1.587829
    7 2 3 o 1571.85 1921.20 1.586715
    7 -2 3 o 1571.85 1921.20 1.586715
    3 0 14 o 94.95 119.48 1.585811
    6 0 9 o 2020.64 2542.75 1.585807
    4 5 8 o 1449.18 1853.41 1.585571
    4 -5 8 o 1449.18 1853.40 1.585571
    0 4 13 o 1287.62 1639.93 1.585439
    3 6 7 o 650.93 819.71 1.584971
    3 -6 7 o 650.93 819.71 1.584971
    6 4 4 o 287.84 380.65 1.584308
    6 -4 4 o 287.84 380.65 1.584308
    5 -4 8 o 1692.80 1640.60 1.580449
    5 4 8 o 1692.80 1640.60 1.580449
    0 7 6 < 127.37 145.41 1.578793
    1 -3 14 < 16.49 16.02 1.576628
    1 3 14 < 16.49 16.02 1.576628
    4 0 13 < 2650.05 2696.78 1.576371
    7 -1 5 < 622.00 862.72 1.574224
    7 1 5 < 622.00 862.72 1.574224
    3 -1 14 o 1367.11 1465.67 1.572150
    3 1 14 o 1367.11 1465.67 1.572150
    6 1 9 o 409.60 439.13 1.572146
    6 -1 9 o 409.60 439.13 1.572146
    1 4 13 o 994.83 1031.95 1.571230
    1 -4 13 o 994.83 1031.95 1.571230
    3 7 0 o 1.18 1.25 1.571058
    6 -3 7 < 1161.70 1508.91 1.569771
    6 3 7 < 1161.71 1508.92 1.569771
    3 7 1 < 274.52 390.03 1.567778
    3 -7 1 < 274.52 390.03 1.567778
    2 5 11 o 253.30 275.28 1.566023
    2 -5 11 o 253.30 275.28 1.566023
    4 6 5 o 2036.08 2176.76 1.565683
    4 -6 5 o 2036.08 2176.75 1.565683
    3 -5 10 o 1379.65 1465.18 1.565058
    3 5 10 o 1379.65 1465.18 1.565058
    1 -7 6 o 192.95 197.39 1.564761
    1 7 6 o 192.95 197.39 1.564761
    7 2 4 o 29.41 30.92 1.563508
    7 -2 4 o 29.41 30.92 1.563508
    4 1 13 o 2937.46 3103.82 1.562950
    4 -1 13 o 2937.47 3103.83 1.562950
    0 2 15 o 745.04 797.39 1.562555
    2 0 15 < 199.97 310.67 1.560371
    2 7 5 < 587.45 648.03 1.559013
    2 -7 5 < 587.45 648.03 1.559013
    3 7 2 o 10.43 7.81 1.558061
    3 -7 2 o 10.43 7.81 1.558061
    5 3 10 o 1797.58 1548.15 1.556333
    5 -3 10 o 1797.58 1548.15 1.556333
    6 4 5 o 1116.92 951.35 1.554787
    6 -4 5 o 1116.92 951.35 1.554787
    5 -2 11 o 27.78 23.88 1.554581
    5 2 11 o 27.78 23.88 1.554581
    3 -3 13 < 123.39 106.91 1.553618
    3 3 13 < 123.39 106.91 1.553618
    7 0 6 < 126.24 132.23 1.551839
    5 -5 6 < 500.22 523.93 1.551735
    5 5 6 < 500.22 523.93 1.551735
    2 6 9 o 295.76 434.13 1.550003
    2 -6 9 o 295.76 434.14 1.550003
    7 3 0 o 1460.51 2156.65 1.549270
    1 2 15 o 967.32 1392.76 1.548948
    1 -2 15 o 967.32 1392.76 1.548948
    2 1 15 o 794.15 849.71 1.547351
    2 -1 15 o 794.15 849.71 1.547351
    0 5 12 o 2650.25 2621.34 1.546947
    7 3 1 o 475.29 489.11 1.546125
    7 -3 1 o 475.29 489.11 1.546125
    0 6 10 < 20.95 106.55 1.543839
    3 7 3 < 66.89 380.09 1.542259
    3 -7 3 < 66.89 380.09 1.542259
    3 4 12 < 95.59 543.17 1.542190
    3 -4 12 < 95.59 543.18 1.542190
    7 1 6 < 102.66 187.37 1.539030
    7 -1 6 < 102.66 187.37 1.539030
    4 3 12 < 476.90 772.23 1.538520
    4 -3 12 < 476.90 772.23 1.538520
    0 7 7 o 15.04 19.64 1.537099
    7 -3 2 o 357.35 454.51 1.536802
    7 3 2 o 357.35 454.51 1.536802
    3 6 8 o 1859.46 2392.36 1.536604
    3 -6 8 o 1859.46 2392.35 1.536604
    2 3 14 o 280.03 350.45 1.535783
    2 -3 14 o 280.03 350.45 1.535783
    7 -2 5 o 1154.83 1374.16 1.535115
    7 2 5 o 1154.83 1374.16 1.535115
    5 0 12 o 505.51 606.14 1.533840
    1 5 12 o 290.27 338.39 1.533740
    1 -5 12 o 290.27 338.39 1.533740
    6 -2 9 o 139.20 182.58 1.533188
    3 -2 14 o 752.98 987.61 1.533191
    6 2 9 o 139.20 182.58 1.533188
    3 2 14 o 752.98 987.61 1.533191
    4 6 6 o 114.52 149.62 1.531047
    4 -6 6 o 114.52 149.62 1.531047
    4 5 9 o 117.05 152.93 1.531024
    4 -5 9 o 117.05 152.93 1.531024
    2 4 13 o 579.45 760.28 1.530792
    2 -4 13 o 579.45 760.28 1.530792
    1 6 10 o 1017.52 1335.05 1.530710
    1 -6 10 o 1017.51 1335.05 1.530710
    5 4 9 o 5640.65 4672.96 1.526412
    5 -4 9 o 5640.65 4672.96 1.526412
    6 0 10 o 999.33 883.51 1.525181
    2 -7 6 o 267.82 240.35 1.524808
    2 7 6 o 267.82 240.35 1.524808
    4 2 13 o 2195.78 2070.88 1.524655
    4 -2 13 o 2195.79 2070.89 1.524655
    1 -7 7 o 288.68 287.15 1.524140
    1 7 7 o 288.68 287.15 1.524140
    5 6 0 o 325.85 324.12 1.523989
    6 3 8 o 1183.40 1237.49 1.522742
    6 -3 8 o 1183.40 1237.49 1.522742
    7 3 3 o 667.05 778.25 1.521632
    7 -3 3 o 667.05 778.25 1.521632
    5 -1 12 o 210.70 256.94 1.521468
    5 1 12 o 210.70 256.94 1.521468
    4 4 11 o 1163.15 1418.39 1.521409
    4 -4 11 o 1163.14 1418.38 1.521409
    5 6 1 o 10.22 12.90 1.520995
    5 -6 1 o 10.22 12.90 1.520995
    3 -7 4 o 525.44 662.88 1.520923
    3 7 4 o 525.43 662.88 1.520923
    6 4 6 o 85.03 106.75 1.520853
    6 -4 6 o 85.03 106.75 1.520853
    6 5 0 < 128.66 202.66 1.518435
    0 0 16 < 969.23 1592.52 1.517221
    6 5 1 < 34.58 83.37 1.515473
    6 -5 1 < 34.58 83.37 1.515473
    6 1 10 < 245.81 332.67 1.513016
    6 -1 10 < 245.81 332.67 1.513016
    7 0 7 o 77.81 110.55 1.512191
    5 6 2 o 1150.01 1641.80 1.512117
    5 -6 2 o 1150.02 1641.80 1.512117
    5 -5 7 o 548.39 782.90 1.512095
    5 5 7 o 548.39 782.90 1.512095
    2 2 15 < 300.36 727.73 1.510164
    2 -2 15 < 300.36 727.73 1.510164
    6 -5 2 < 129.69 295.99 1.506691
    6 5 2 < 129.69 295.99 1.506691
    0 1 16 < 80.78 104.97 1.505244
    1 0 16 < 783.05 965.58 1.504755
    7 -2 6 o 376.14 381.89 1.502426
    7 2 6 o 376.14 381.89 1.502426
    0 4 14 o 240.19 356.94 1.501342
    7 -3 4 o 380.87 568.18 1.501129
    7 3 4 o 380.87 568.18 1.501129
    3 5 11 o 527.84 807.30 1.500924
    3 -5 11 o 527.84 807.30 1.500924
    0 8 0 o 3389.44 5183.13 1.500391
    7 -1 7 o 1039.04 1615.17 1.500332
    7 1 7 o 1039.04 1615.16 1.500332
    0 3 15 o 122.22 189.99 1.500286
    5 -6 3 < 127.55 179.00 1.497659
    5 6 3 < 127.55 179.00 1.497659
    0 8 1 < 975.52 1235.36 1.497534
    2 5 12 o 794.40 880.71 1.496060
    2 -5 12 o 794.40 880.71 1.496060
    3 0 15 o 1662.36 1842.99 1.495945
    3 -7 5 < 608.60 659.40 1.494749
    3 7 5 < 608.60 659.40 1.494749
    4 0 14 o 420.90 516.00 1.493635
    2 6 10 o 837.91 1059.53 1.493248
    2 -6 10 o 837.92 1059.54 1.493248
    5 3 11 o 71.83 90.83 1.493223
    5 -3 11 o 71.83 90.83 1.493223
    1 1 16 o 670.53 848.05 1.493068
    1 -1 16 o 670.53 848.05 1.493068
    4 6 7 o 299.10 380.49 1.492933
    4 -6 7 o 299.10 380.49 1.492933
    0 7 8 o 13.01 16.33 1.492864
    6 5 3 o 2746.56 3499.50 1.492387
    6 -5 3 o 2746.56 3499.50 1.492387
    1 -4 14 o 1839.88 1946.20 1.489260
    1 4 14 o 1839.89 1946.21 1.489260
    0 8 2 o 1211.55 1282.14 1.489058
    1 8 0 o 138.09 147.19 1.488332
    1 3 15 o 437.34 466.16 1.488229
    1 -3 15 o 437.34 466.16 1.488229
    2 7 7 o 1618.07 1233.29 1.487146
    2 -7 7 o 1618.07 1233.29 1.487146
    3 -6 9 o 1551.53 1153.39 1.486802
    3 6 9 o 1551.53 1153.39 1.486802
    5 2 12 o 1625.84 1035.09 1.486074
    5 -2 12 o 1625.84 1035.10 1.486074
    1 8 1 o 1268.92 805.90 1.485542
    1 -8 1 o 1268.92 805.90 1.485542
    3 -1 15 < 948.04 597.91 1.484461
    3 1 15 < 948.05 597.92 1.484461
    6 4 7 < 133.88 241.89 1.483477
    6 -4 7 < 133.88 241.89 1.483477
    4 1 14 < 522.27 618.43 1.482203
    4 -1 14 < 522.27 618.43 1.482203
    0 6 11 < 65.72 77.82 1.482177
    4 7 0 < 20.44 19.22 1.481289
    1 7 8 < 318.45 328.27 1.480984
    1 -7 8 < 318.45 328.27 1.480984
    4 7 1 o 38.56 35.97 1.478539
    4 -7 1 o 38.56 35.97 1.478539
    6 -2 10 o 555.81 504.01 1.478195
    6 2 10 o 555.81 504.01 1.478195
    5 6 4 o 3919.78 3554.45 1.478098
    5 -6 4 o 3919.78 3554.45 1.478098
    1 8 2 o 2865.03 2531.70 1.477268
    1 -8 2 o 2865.03 2531.70 1.477268
    4 5 10 o 935.22 747.72 1.476256
    4 -5 10 o 935.22 747.72 1.476256
    7 3 5 o 644.93 559.40 1.475947
    7 -3 5 o 644.92 559.40 1.475947
    0 8 3 < 113.04 137.68 1.475246
    3 -3 14 < 464.24 463.43 1.474237
    3 3 14 < 464.24 463.43 1.474237
    6 3 9 < 179.70 179.39 1.474234
    6 -3 9 < 179.70 179.39 1.474234
    0 5 13 < 6.91 8.66 1.473938
    6 -5 4 < 1328.10 1565.90 1.473029
    6 5 4 < 1328.10 1565.91 1.473029
    5 -4 10 < 274.68 344.94 1.472120
    5 4 10 < 274.68 344.94 1.472120
    0 2 16 < 219.02 332.68 1.470945
    1 6 11 < 3.66 5.10 1.470548
    1 -6 11 < 3.66 5.10 1.470548
    4 7 2 < 69.55 93.51 1.470379
    4 -7 2 < 69.55 93.51 1.470379
    8 0 0 < 215.12 289.24 1.470312
    7 0 8 < 762.71 1025.97 1.470015
    5 5 8 < 113.27 153.95 1.469926
    5 -5 8 < 113.27 153.95 1.469926
    3 -4 13 < 114.61 159.05 1.469821
    3 4 13 < 114.62 159.05 1.469821
    2 0 16 < 235.76 312.37 1.469122
    8 0 1 o 6.28 5.25 1.467623
    4 3 13 < 737.43 862.46 1.466643
    4 -3 13 < 737.43 862.45 1.466643
    7 2 7 < 411.66 474.95 1.466360
    7 -2 7 < 411.66 474.95 1.466360
    7 4 0 < 13.19 16.26 1.466139
    6 0 11 < 13.46 17.41 1.465643
    3 7 6 < 688.30 985.01 1.464521
    3 -7 6 < 688.29 985.01 1.464521
    1 8 3 < 35.70 49.53 1.463778
    1 -8 3 < 35.70 49.53 1.463778
    7 4 1 < 118.43 175.51 1.463472
    7 -4 1 < 118.43 175.51 1.463472
    5 0 13 < 833.87 1019.07 1.462587
    1 -5 13 < 112.36 137.80 1.462500
    1 5 13 < 112.36 137.80 1.462500
    8 0 2 < 106.20 165.93 1.459642
    1 2 16 < 197.14 299.49 1.459576
    1 -2 16 < 197.14 299.49 1.459576
    8 1 0 < 485.27 737.12 1.459404
    7 1 8 < 220.51 313.15 1.459113
    7 -1 8 < 220.51 313.15 1.459113
    2 1 16 < 388.45 444.06 1.458240
    2 -1 16 < 388.45 444.05 1.458240
    4 7 3 < 361.55 551.70 1.457076
    4 -7 3 < 361.55 551.70 1.457076
    4 4 12 < 10.56 16.92 1.457018
    4 -4 12 < 10.56 16.92 1.457018
    8 1 1 < 254.22 414.95 1.456774
    8 -1 1 < 254.22 414.96 1.456774
    0 8 4 < 378.33 575.90 1.456539
    7 -4 2 < 278.34 360.78 1.455558
    7 4 2 < 278.34 360.78 1.455558
    6 1 11 o 484.68 509.64 1.454838
    6 -1 11 o 484.67 509.64 1.454838
    2 4 14 o 1203.04 1295.34 1.454692
    2 -4 14 o 1203.03 1295.33 1.454692
    5 6 5 o 92.47 100.50 1.454039
    5 -6 5 o 92.47 100.49 1.454039
    2 8 0 o 280.02 308.10 1.453827
    2 3 15 o 777.15 804.89 1.453731
    2 -3 15 o 777.15 804.89 1.453731
    4 6 8 < 260.60 344.38 1.452304
    4 -6 8 < 260.60 344.38 1.452304
    5 1 13 < 53.06 82.43 1.451849
    5 -1 13 < 53.06 82.44 1.451849
    3 2 15 < 155.44 203.81 1.451532
    3 -2 15 < 155.44 203.81 1.451532
    2 -8 1 < 137.82 152.19 1.451227
    2 8 1 < 137.82 152.19 1.451227
    4 2 14 < 45.44 60.78 1.449422
    4 -2 14 < 45.44 60.78 1.449422
    6 5 5 < 499.38 660.07 1.449213
    6 -5 5 < 499.38 660.07 1.449213
    8 1 2 < 291.52 385.11 1.448968
    8 -1 2 < 291.52 385.11 1.448968
    0 7 9 < 49.32 61.95 1.447072
    2 -7 8 < 69.72 87.56 1.446976
    2 7 8 < 69.72 87.56 1.446976
    7 -3 6 < 521.82 526.29 1.446824
    7 3 6 < 521.82 526.28 1.446824
    8 0 3 < 173.71 152.30 1.446625
    1 8 4 o 2498.89 1559.02 1.445498
    1 -8 4 o 2498.88 1559.02 1.445498
    6 -4 8 < 153.94 166.47 1.443595
    6 4 8 < 153.94 166.47 1.443595
    2 8 2 < 295.61 319.68 1.443509
    2 -8 2 < 295.61 319.68 1.443509
    7 -4 3 < 23.89 28.22 1.442649
    7 4 3 < 23.89 28.22 1.442649
    4 7 4 < 265.61 283.65 1.439043
    4 -7 4 < 265.61 283.65 1.439043
    3 -5 12 < 319.07 336.91 1.438995
    3 5 12 < 319.07 336.92 1.438995
    2 6 11 o 166.38 183.56 1.437238
    2 -6 11 o 166.37 183.56 1.437238
    3 -6 10 o 336.58 327.66 1.436492
    3 6 10 o 336.58 327.66 1.436492
    1 7 9 o 1383.07 1360.70 1.436244
    1 -7 9 o 1383.07 1360.70 1.436244
    8 1 3 o 486.02 478.16 1.436232
    8 -1 3 o 486.02 478.16 1.436232
    0 8 5 < 161.14 529.94 1.433501
    5 3 12 < 622.69 807.58 1.432204
    5 -3 12 < 622.69 807.57 1.432204
    3 -7 7 o 884.03 892.26 1.431058
    3 7 7 o 884.03 892.26 1.431058
    2 -8 3 o 2046.90 2075.85 1.430916
    2 8 3 o 2046.89 2075.84 1.430916
    2 5 13 < 205.51 233.27 1.429722
    2 -5 13 < 205.51 233.27 1.429722
    8 0 4 < 1227.90 1514.80 1.428973
    8 2 0 < 109.23 131.02 1.428081
    7 -2 8 < 1218.19 1456.78 1.427808
    7 2 8 < 1218.19 1456.78 1.427808
    2 2 16 < 398.31 443.48 1.426990
    2 -2 16 < 398.31 443.49 1.426990
    7 0 9 < 1295.50 1250.03 1.426232
    5 6 6 < 562.65 542.90 1.426170
    5 -6 6 < 562.65 542.90 1.426170
    5 5 9 < 56.23 54.26 1.426152
    5 -5 9 < 56.23 54.26 1.426152
    8 -2 1 < 24.94 23.97 1.425616
    8 2 1 < 24.94 23.97 1.425616
    6 3 10 o 578.42 548.66 1.425147
    6 -3 10 o 578.43 548.67 1.425147
    7 4 4 o 343.96 326.27 1.425141
    7 -4 4 o 343.96 326.27 1.425141
    0 4 15 o 888.74 883.84 1.424419
    6 2 11 o 1676.82 1669.15 1.423802
    6 -2 11 o 1676.82 1669.15 1.423802
    1 8 5 < 512.48 523.27 1.422973
    1 -8 5 < 512.48 523.27 1.422973
    0 6 12 o 1.44 1.07 1.422450
    4 5 11 o 592.42 458.14 1.422068
    4 -5 11 o 592.41 458.14 1.422068
    6 -5 6 < 431.10 330.70 1.421615
    6 5 6 < 431.10 330.71 1.421615
    5 2 13 < 384.58 301.81 1.420999
    5 -2 13 < 384.58 301.81 1.420999
    8 1 4 o 343.21 524.10 1.418954
    8 -1 4 o 343.21 524.10 1.418954
    0 3 16 o 0.05 0.08 1.418647
    5 -4 11 o 90.22 134.91 1.418370
    5 4 11 o 90.22 134.91 1.418370
    8 2 2 o 319.50 477.78 1.418298
    8 -2 2 o 319.50 477.78 1.418298
    0 1 17 o 2673.25 4047.25 1.417974
    4 0 15 o 1218.23 1808.08 1.417832
    1 0 17 o 0.26 0.39 1.417565
    4 7 5 < 33.45 50.06 1.416813
    4 -7 5 < 33.45 50.06 1.416813
    7 1 9 < 436.20 837.82 1.416269
    7 -1 9 < 436.20 837.82 1.416269
    3 0 16 < 2.79 8.49 1.414975
    7 3 7 < 55.86 83.44 1.414533
    7 -3 7 < 55.86 83.44 1.414533
    1 -4 15 < 193.51 263.88 1.414088
    1 4 15 < 193.50 263.88 1.414088
    2 8 4 < 44.96 60.92 1.413826
    2 -8 4 < 44.96 60.92 1.413826
    1 6 12 < 2.13 3.07 1.412161
    1 -6 12 < 2.13 3.07 1.412161
    4 6 9 < 9.95 7.47 1.410041
    4 -6 9 < 9.95 7.47 1.410041
    1 3 16 < 590.50 668.79 1.408440
    1 -3 16 < 590.50 668.79 1.408440
    4 1 15 < 904.41 984.38 1.408043
    4 -1 15 < 904.41 984.38 1.408043
    6 0 12 < 0.04 0.04 1.407816
    1 1 17 < 302.03 315.67 1.407781
    1 -1 17 < 302.03 315.67 1.407781
    8 0 5 < 225.23 299.86 1.407200
    0 8 6 o 143.16 174.36 1.406775
    8 -2 3 o 1558.37 1865.79 1.406347
    8 2 3 o 1558.38 1865.79 1.406347
    0 5 14 o 1778.03 2157.27 1.405641
    3 1 16 o 95.38 101.74 1.405245
    3 -1 16 o 95.38 101.74 1.405245
    2 -7 9 o 454.95 485.06 1.405163
    2 7 9 o 454.96 485.07 1.405163
    7 -4 5 < 12.18 6.63 1.403539
    7 4 5 < 12.18 6.63 1.403539
    3 4 14 < 634.68 695.76 1.402069
    3 -4 14 < 634.68 695.76 1.402069
    6 4 9 < 902.20 989.03 1.402066
    6 -4 9 < 902.19 989.03 1.402066
    3 8 0 < 334.84 405.89 1.401294
    3 3 15 < 244.97 296.95 1.401208
    3 -3 15 < 244.97 296.95 1.401208
    0 7 10 < 21.32 38.39 1.400565
    6 6 0 < 582.82 757.99 1.400188
    4 3 14 < 131.59 193.22 1.399309
    4 -3 14 < 131.60 193.22 1.399309
    3 -8 1 < 269.68 325.83 1.398965
    3 8 1 < 269.68 325.83 1.398965
    6 1 12 o 329.61 393.04 1.398232
    6 -1 12 o 329.62 393.04 1.398232
    6 -6 1 < 519.50 537.93 1.397864
    6 6 1 < 519.50 537.93 1.397864
    8 -1 5 < 47.27 47.49 1.397628
    8 1 5 < 47.27 47.49 1.397628
    1 8 6 < 711.20 694.47 1.396820
    1 -8 6 < 711.20 694.47 1.396820
    5 0 14 < 0.03 0.04 1.395785
    1 -5 14 < 84.43 107.43 1.395710
    1 5 14 < 84.43 107.43 1.395710
    4 4 13 < 45.80 58.73 1.395532
    4 -4 13 < 45.80 58.73 1.395532
    5 6 7 < 853.52 1125.14 1.395212
    5 -6 7 < 853.52 1125.14 1.395212
    3 -7 8 < 888.50 1171.26 1.395156
    3 7 8 < 888.50 1171.26 1.395156
    2 8 5 < 835.70 973.06 1.392727
    2 -8 5 < 835.70 973.07 1.392727
    3 -8 2 < 111.68 160.77 1.392048
    3 8 2 < 111.68 160.77 1.392048
    4 7 6 < 135.18 198.66 1.390993
    4 -7 6 < 135.18 198.66 1.390993
    6 6 2 < 453.00 682.81 1.390963
    6 -6 2 < 453.00 682.80 1.390963
    6 5 7 < 271.97 409.94 1.390947
    6 -5 7 < 271.97 409.94 1.390947
    1 7 10 < 54.09 84.35 1.390741
    1 -7 10 < 54.09 84.35 1.390741
    8 2 4 < 63.33 107.23 1.390113
    8 -2 4 < 63.33 107.23 1.390113
    0 2 17 < 481.89 712.34 1.389192
    2 0 17 o 1.88 1.71 1.387656
    7 2 9 o 247.74 226.10 1.387589
    7 -2 9 o 247.74 226.10 1.387589
    5 1 14 o 2750.69 2647.10 1.386443
    5 -1 14 o 2750.69 2647.10 1.386443
    3 -6 11 o 388.98 374.33 1.386422
    3 6 11 o 388.98 374.33 1.386422
    5 7 0 o 3059.88 2902.83 1.385694
    2 4 15 < 44.07 51.77 1.384394
    2 -4 15 < 44.07 51.77 1.384394
    5 7 1 < 263.76 397.33 1.383442
    5 -7 1 < 263.76 397.33 1.383442
    2 6 12 < 389.17 562.97 1.382586
    2 -6 12 < 389.18 562.97 1.382586
    8 0 6 < 138.41 208.00 1.381892
    7 0 10 < 54.53 78.47 1.381645
    5 5 10 < 222.05 319.56 1.381572
    5 -5 10 < 222.05 319.56 1.381572
    3 -8 3 < 699.62 795.50 1.380744
    3 8 3 < 699.62 795.50 1.380744
    8 3 0 o 948.45 1068.64 1.380077
    4 2 15 o 232.96 276.30 1.379849
    4 -2 15 o 232.96 276.30 1.379849
    7 -3 8 o 201.52 239.01 1.379831
    7 3 8 o 201.52 239.01 1.379831
    6 6 3 o 110.73 130.15 1.379685
    6 -6 3 o 110.73 130.15 1.379685
    3 -5 13 o 101.44 119.23 1.379671
    3 5 13 o 101.44 119.23 1.379671
    1 2 17 o 906.30 1055.81 1.379603
    1 -2 17 o 906.30 1055.80 1.379603
    2 3 16 o 830.71 976.97 1.379093
    2 -3 16 o 830.71 976.96 1.379093
    2 1 17 o 764.94 930.99 1.378475
    2 -1 17 o 764.94 930.99 1.378475
    7 4 6 o 131.49 165.53 1.378425
    7 -4 6 o 131.49 165.53 1.378425
    8 3 1 < 69.04 79.65 1.377853
    8 -3 1 < 69.04 79.65 1.377853
    3 2 16 < 72.97 100.99 1.377216
    3 -2 16 < 72.97 100.99 1.377216
    0 8 7 < 54.40 67.56 1.377037
    5 7 2 < 78.86 128.93 1.376751
    5 -7 2 < 78.86 128.93 1.376751
    7 5 0 < 173.39 282.21 1.376624
    6 3 11 < 460.06 755.63 1.376214
    6 -3 11 < 460.06 755.63 1.376214
    7 5 1 < 142.29 228.05 1.374416
    7 -5 1 < 142.29 228.05 1.374416
    5 3 13 < 375.55 705.33 1.373683
    5 -3 13 < 375.55 705.33 1.373683
    8 1 6 < 299.85 600.20 1.372824
    8 -1 6 < 299.85 600.20 1.372824
    7 1 10 < 263.97 577.85 1.372582
    7 -1 10 < 263.96 577.84 1.372582
    8 3 2 < 169.42 154.19 1.371242
    8 -3 2 < 169.42 154.19 1.371242
    6 2 12 < 451.14 475.84 1.370612
    6 -2 12 < 451.14 475.84 1.370612
    8 -2 5 < 1231.75 1408.02 1.370043
    8 2 5 < 1231.75 1408.02 1.370043
    4 5 12 < 333.99 442.71 1.369066
    4 -5 12 < 333.99 442.71 1.369066
    2 -8 6 < 6.23 6.54 1.368179
    2 8 6 < 6.23 6.54 1.368179
    7 5 2 < 264.27 281.94 1.367855
    7 -5 2 < 264.27 281.94 1.367855
    1 8 7 < 503.65 553.49 1.367697
    1 -8 7 < 503.65 553.49 1.367697
    2 5 14 < 50.49 52.08 1.367136
    2 -5 14 < 50.49 52.08 1.367136
    4 6 10 < 302.45 339.19 1.366910
    4 -6 10 < 302.45 339.19 1.366910
    5 7 3 < 936.42 1066.77 1.365813
    5 -7 3 < 936.42 1066.77 1.365813
    5 4 12 < 80.34 89.78 1.365765
    5 -4 12 < 80.34 89.78 1.365765
    3 -8 4 < 248.53 296.12 1.365370
    3 8 4 < 248.53 296.11 1.365370
    0 6 13 < 146.69 192.98 1.365069
    6 6 4 < 454.30 735.84 1.364347
    6 -6 4 < 454.30 735.84 1.364347
    2 -7 10 < 42.81 63.77 1.362464
    2 7 10 < 42.81 63.77 1.362464
    4 7 7 < 181.51 260.65 1.362225
    4 -7 7 < 181.51 260.65 1.362225
    5 6 8 < 237.22 328.40 1.361880
    5 -6 8 < 237.22 328.40 1.361880
    8 -3 3 < 210.46 414.32 1.360433
    8 3 3 < 210.46 414.32 1.360433
    6 4 10 < 11.72 28.68 1.359641
    6 -4 10 < 11.72 28.68 1.359641
    5 2 14 < 57.96 105.14 1.359503
    5 -2 14 < 57.96 105.14 1.359503
    6 5 8 < 682.77 708.72 1.357912
    6 -5 8 < 682.77 708.72 1.357912
    3 -7 9 < 657.49 664.00 1.357563
    3 7 9 < 657.49 664.00 1.357563
    7 -5 3 < 169.38 160.64 1.357125
    7 5 3 < 169.38 160.64 1.357125
    1 6 13 < 1567.09 1631.63 1.355968
    1 -6 13 < 1567.09 1631.62 1.355968
    0 7 11 < 0.18 0.24 1.354039
    0 4 16 < 227.56 304.61 1.353993
    8 0 7 < 32.77 25.74 1.353674
    6 0 13 o 1912.35 1941.75 1.352120
    2 2 17 o 604.99 613.20 1.351987
    2 -2 17 o 604.99 613.20 1.351987
    5 7 4 < 408.20 479.12 1.350927
    5 -7 4 < 408.20 479.11 1.350927
    7 4 7 < 366.97 491.83 1.350414
    7 -4 7 < 366.97 491.83 1.350414
    0 0 18 < 2861.89 4830.17 1.348641
    4 0 16 < 7.46 12.44 1.348331
    8 2 6 o 440.37 360.47 1.346655
    8 -2 6 o 440.37 360.47 1.346655
    7 2 10 o 3094.15 2486.01 1.346426
    7 -2 10 o 3094.15 2486.01 1.346426
    3 -8 5 o 473.63 380.54 1.346339
    3 8 5 o 473.63 380.54 1.346339
    8 3 4 o 144.82 119.46 1.345721
    8 -3 4 o 144.82 119.46 1.345721
    6 6 5 o 329.52 289.99 1.345357
    6 -6 5 o 329.52 289.99 1.345357
    1 7 11 o 133.65 118.77 1.345156
    1 -7 11 o 133.65 118.77 1.345156
    8 1 7 o 472.25 419.65 1.345147
    8 -1 7 o 472.26 419.65 1.345147
    1 -4 16 o 294.96 262.11 1.345110
    1 4 16 o 294.96 262.11 1.345110
    0 8 8 o 1321.10 1159.88 1.344961
    0 3 17 o 718.17 613.46 1.344885
    6 1 13 o 1336.91 1303.47 1.343622
    6 -1 13 o 1336.92 1303.47 1.343622
    7 3 9 o 518.06 515.73 1.343431
    7 -3 9 o 518.06 515.74 1.343431
    7 5 4 < 100.12 122.60 1.342519
    7 -5 4 < 100.12 122.60 1.342519
    0 5 15 < 26.21 43.63 1.341915
    3 0 17 < 9.14 16.38 1.341756
    2 -8 7 < 878.41 1052.48 1.340776
    2 8 7 < 878.41 1052.48 1.340776
    0 1 18 < 4.35 4.82 1.340208
    4 1 16 < 520.77 516.74 1.339904
    4 -1 16 < 520.77 516.74 1.339904
    1 0 18 < 1268.46 1437.12 1.339863
    3 4 15 < 923.33 1112.57 1.338806
    3 -4 15 < 923.32 1112.56 1.338806
    3 6 12 < 113.55 169.55 1.337171
    3 -6 12 < 113.55 169.55 1.337171
    4 4 14 < 61.46 91.76 1.337150
    4 -4 14 < 61.46 91.76 1.337150
    7 0 11 < 79.96 118.49 1.336920
    5 5 11 < 207.28 307.14 1.336854
    5 -5 11 < 207.28 307.14 1.336854
    4 8 0 < 76.92 111.68 1.336478
    4 3 15 < 49.69 74.85 1.336403
    4 -3 15 < 49.69 74.85 1.336403
    1 8 8 < 79.02 119.08 1.336254
    1 -8 8 < 79.02 119.08 1.336254
    1 3 17 < 236.97 382.74 1.336180
    1 -3 17 < 236.97 382.74 1.336180
    4 8 1 < 20.14 28.74 1.334457
    4 -8 1 < 20.14 28.73 1.334457
    3 3 16 < 251.97 485.60 1.334010
    3 -3 16 < 251.97 485.61 1.334010
    3 1 17 < 157.70 266.31 1.333451
    3 -1 17 < 157.70 266.31 1.333451
    5 0 15 < 505.70 839.75 1.333333
    1 -5 15 < 609.47 1034.30 1.333267
    1 5 15 < 609.47 1034.30 1.333267
    5 7 5 < 134.76 247.52 1.332485
    5 -7 5 < 134.76 247.52 1.332485
    0 9 1 < 21.79 23.48 1.331673
    1 1 18 < 101.24 108.19 1.331592
    1 -1 18 < 101.24 108.19 1.331592
    4 7 8 < 31.41 70.29 1.331150
    4 -7 8 < 31.41 70.29 1.331150
    2 6 13 < 531.99 508.45 1.329721
    2 -6 13 < 531.98 508.45 1.329721
    7 1 11 < 29.15 40.05 1.328704
    7 -1 11 < 29.15 40.05 1.328704
    4 8 2 < 1328.99 1817.07 1.328449
    4 -8 2 < 1328.99 1817.08 1.328449
    6 3 12 < 342.13 476.83 1.328006
    6 -3 12 < 342.13 476.83 1.328006
    8 -3 5 < 482.57 565.09 1.327489
    8 3 5 < 482.57 565.09 1.327489
    5 6 9 < 89.32 100.69 1.326847
    5 -6 9 < 89.32 100.69 1.326847
    0 9 2 o 110.11 57.72 1.325702
    1 9 0 o 900.99 532.74 1.325190
    5 1 15 o 1622.78 959.52 1.325182
    5 -1 15 o 1622.77 959.52 1.325182
    7 5 5 < 94.87 114.06 1.324414
    7 -5 5 < 94.87 114.06 1.324414
    3 -8 6 < 56.86 82.68 1.324124
    3 8 6 < 56.86 82.68 1.324124
    4 6 11 < 437.97 730.27 1.323557
    4 -6 11 < 437.97 730.27 1.323557
    1 9 1 < 54.81 92.18 1.323220
    1 -9 1 < 54.81 92.18 1.323220
    6 6 6 < 437.73 736.11 1.323191
    6 -6 6 < 437.73 736.11 1.323191
    3 -5 14 < 1.47 2.54 1.323179
    3 5 14 < 1.47 2.54 1.323179
    6 5 9 < 49.49 85.34 1.323176
    6 -5 9 < 49.49 85.34 1.323176
    8 0 8 < 92.69 159.85 1.323167
    8 2 7 < 93.97 189.88 1.320500
    8 -2 7 < 93.96 189.88 1.320500
    8 4 0 < 757.50 1849.18 1.320339
    7 4 8 < 129.58 265.65 1.320123
    7 -4 8 < 129.58 265.65 1.320123
    2 -7 11 < 177.49 312.41 1.319520
    2 7 11 < 177.49 312.41 1.319520
    2 4 16 < 378.93 772.47 1.319477
    2 -4 16 < 378.93 772.47 1.319477
    6 2 13 < 47.95 84.55 1.319058
    6 -2 13 < 47.95 84.55 1.319058
    3 -7 10 < 49.32 78.70 1.318942
    3 7 10 < 49.32 78.70 1.318942
    4 8 3 < 378.06 419.74 1.318614
    4 -8 3 < 378.06 419.74 1.318614
    8 4 1 < 30.63 35.78 1.318390
    8 -4 1 < 30.63 35.78 1.318390
    5 3 14 < 210.16 400.45 1.317894
    5 -3 14 < 210.16 400.45 1.317894
    4 5 13 < 140.51 284.16 1.317680
    4 -5 13 < 140.51 284.16 1.317680
    1 9 2 < 28.74 65.10 1.317362
    1 -9 2 < 28.74 65.10 1.317362
    6 4 11 < 572.73 1130.00 1.316954
    6 -4 11 < 572.73 1130.00 1.316954
    0 9 3 < 0.02 0.04 1.315927
    0 2 18 < 227.76 413.06 1.315828
    4 2 16 < 271.70 370.37 1.315540
    4 -2 16 < 271.70 370.36 1.315540
    8 1 8 < 26.91 38.39 1.315201
    8 -1 8 < 26.91 38.39 1.315201
    5 4 13 < 113.21 155.27 1.314736
    5 -4 13 < 113.21 155.27 1.314736
    2 0 18 < 14.99 24.12 1.314522
    8 4 2 < 130.43 222.29 1.312596
    8 -4 2 < 130.43 222.29 1.312596
    0 8 9 < 374.02 264.30 1.311185
    2 -8 8 < 56.90 40.21 1.311114
    2 8 8 < 56.90 40.21 1.311114
    2 3 17 < 11.99 8.38 1.311044
    2 -3 17 < 11.99 8.38 1.311044
    5 7 6 < 24.13 21.09 1.310939
    5 -7 6 < 24.13 21.09 1.310939
    0 6 14 < 25.96 35.14 1.310281
    3 2 17 < 620.16 938.83 1.309430
    3 -2 17 < 620.16 938.83 1.309430
    2 5 15 o 538.62 590.07 1.308292
    2 -5 15 o 538.62 590.07 1.308292
    0 7 12 o 3775.05 4031.19 1.308048
    1 9 3 o 2891.05 3091.44 1.307769
    1 -9 3 o 2891.05 3091.43 1.307769
    1 2 18 o 90.58 93.97 1.307671
    1 -2 18 o 90.58 93.97 1.307671
    2 1 18 o 133.18 121.66 1.306710
    2 -1 18 o 133.18 121.66 1.306710
    8 3 6 < 257.40 292.21 1.306180
    8 -3 6 < 257.40 292.21 1.306180
    7 3 10 o 719.32 795.95 1.305971
    7 -3 10 o 719.31 795.95 1.305971
    4 8 4 o 1255.63 1434.56 1.305204
    4 -8 4 o 1255.63 1434.55 1.305204
    9 0 1 o 1610.67 1870.16 1.305054
    7 2 11 o 769.21 891.90 1.304935
    7 -2 11 o 769.22 891.90 1.304935
    7 5 6 < 553.91 1071.51 1.303251
    7 -5 6 < 553.91 1071.51 1.303251
    1 8 9 < 13.66 25.30 1.303114
    1 -8 9 < 13.66 25.30 1.303114
    8 4 3 < 117.62 217.83 1.303106
    8 -4 3 < 117.62 217.83 1.303106
    0 9 4 < 338.91 644.09 1.302599
    1 6 14 < 97.10 167.74 1.302226
    1 -6 14 < 97.10 167.74 1.302226
    5 2 15 < 498.24 374.35 1.301598
    5 -2 15 < 498.23 374.35 1.301598
    2 9 0 o 90.78 122.72 1.300658
    1 7 12 o 2253.65 2601.89 1.300034
    1 -7 12 o 2253.65 2601.89 1.300034
    9 0 2 o 238.06 263.49 1.299433
    9 1 0 o 18.23 19.18 1.299265
    3 -8 7 o 218.72 230.21 1.299237
    3 8 7 o 218.71 230.21 1.299237
    6 0 14 o 1845.72 1859.10 1.298817
    2 -9 1 o 2042.04 2065.28 1.298795
    2 9 1 o 2042.03 2065.28 1.298795
    4 7 9 o 196.00 208.72 1.298379
    4 -7 9 o 196.00 208.72 1.298379
    6 6 7 o 946.18 1007.59 1.298355
    6 -6 7 o 946.18 1007.59 1.298355
    9 1 1 o 173.36 192.45 1.297408
    9 -1 1 o 173.36 192.45 1.297408
    1 9 4 < 42.89 159.60 1.294684
    1 -9 4 < 42.89 159.60 1.294684
    2 -9 2 < 135.79 210.59 1.293254
    2 9 2 < 135.79 210.59 1.293254
    7 0 12 < 1022.62 1561.68 1.292595
    5 5 12 < 166.21 241.07 1.292535
    5 -5 12 < 166.21 241.07 1.292535
    8 2 8 < 188.76 272.43 1.292136
    8 -2 8 < 188.76 272.43 1.292136
    9 -1 2 < 179.90 229.08 1.291885
    9 1 2 < 179.90 229.08 1.291885
    6 1 14 < 432.61 633.11 1.291279
    6 -1 14 < 432.61 633.11 1.291279
    8 0 9 < 131.50 127.05 1.290968
    5 6 10 < 53.78 55.48 1.290720
    5 -6 10 < 53.78 55.48 1.290720
    6 7 0 < 81.33 85.17 1.290674
    9 0 3 < 65.16 96.17 1.290224
    8 4 4 < 62.12 91.68 1.290159
    8 -4 4 < 62.12 91.68 1.290159
    0 4 17 < 3.93 6.10 1.289422
    3 -6 13 < 662.45 1028.39 1.289170
    3 6 13 < 662.44 1028.38 1.289170
    6 7 1 < 21.76 36.17 1.288854
    6 -7 1 < 21.76 36.17 1.288854
    4 8 5 < 176.73 284.33 1.288550
    4 -8 5 < 176.73 284.33 1.288550
    7 4 9 < 65.62 181.71 1.288140
    7 -4 9 < 65.62 181.71 1.288140
    6 5 10 < 329.95 1053.43 1.287341
    6 -5 10 < 329.95 1053.43 1.287341
    5 7 7 < 434.26 1142.10 1.286774
    5 -7 7 < 434.26 1142.10 1.286774
    7 6 0 < 0.79 2.09 1.286683
    0 9 5 < 508.10 422.60 1.286042
    7 1 12 o 1724.94 814.09 1.285165
    7 -1 12 o 1724.94 814.09 1.285165
    7 6 1 o 1511.77 747.14 1.284880
    7 -6 1 o 1511.76 747.13 1.284880
    4 0 17 o 1473.95 774.55 1.284530
    2 -9 3 o 793.96 429.86 1.284175
    2 9 3 o 793.97 429.86 1.284175
    2 2 18 o 872.29 468.03 1.284082
    2 -2 18 o 872.30 468.03 1.284082
    8 1 9 < 643.09 414.31 1.283566
    8 -1 9 < 643.09 414.31 1.283566
    6 7 2 < 113.88 82.01 1.283438
    6 -7 2 < 113.88 82.02 1.283438
    9 1 3 < 493.29 350.49 1.282834
    9 -1 3 < 493.29 350.49 1.282834
    0 5 16 < 10.66 10.91 1.282544
    8 -3 7 < 622.12 658.73 1.282272
    8 3 7 < 622.13 658.73 1.282272
    4 4 15 < 383.10 395.54 1.281941
    4 -4 15 < 383.10 395.54 1.281941
    1 -4 17 < 26.00 20.50 1.281744
    1 4 17 < 26.00 20.50 1.281744
    6 3 13 o 856.77 366.93 1.280952
    6 -3 13 o 856.77 366.93 1.280952
    4 6 12 o 957.09 537.33 1.280505
    4 -6 12 o 957.10 537.33 1.280505
    3 -7 11 o 261.90 149.34 1.279868
    3 7 11 o 261.89 149.34 1.279868
    3 4 16 o 881.42 502.62 1.279829
    3 -4 16 o 881.41 502.61 1.279829
    2 -8 9 o 2198.74 1253.80 1.279766
    2 8 9 o 2198.74 1253.80 1.279766
    7 -6 2 o 924.93 591.61 1.279514
    7 6 2 o 924.93 591.62 1.279514
    7 5 7 o 42.60 27.06 1.279501
    7 -5 7 o 42.60 27.06 1.279501
    2 6 14 < 762.69 535.18 1.278926
    2 -6 14 < 762.69 535.18 1.278926
    1 9 5 < 395.77 320.33 1.278424
    1 -9 5 < 395.77 320.33 1.278424
    0 3 18 < 60.35 82.63 1.277992
    4 3 16 < 75.25 51.56 1.277729
    4 -3 16 < 75.25 51.56 1.277729
    9 0 4 < 89.81 61.21 1.277654
    4 1 17 < 27.01 21.03 1.277237
    4 -1 17 < 27.00 21.03 1.277237
    9 2 0 < 17.54 6.50 1.277015
    2 -7 12 < 139.59 56.41 1.276849
    2 7 12 < 139.60 56.41 1.276849
    0 8 10 < 472.59 257.49 1.276290
    3 0 18 < 8.83 9.29 1.275306
    9 -2 1 < 202.51 262.79 1.275252
    9 2 1 < 202.51 262.79 1.275252
    5 0 16 < 432.77 519.18 1.275044
    1 -5 16 < 155.23 186.22 1.274987
    1 5 16 < 155.23 186.22 1.274987
    6 7 3 < 10.96 14.41 1.274563
    6 -7 3 < 10.96 14.41 1.274563
    6 4 12 < 363.60 490.63 1.274524
    6 -4 12 < 363.61 490.63 1.274524
    8 4 5 < 623.75 771.23 1.274066
    8 -4 5 < 623.74 771.23 1.274066
    3 -8 8 < 6.21 6.60 1.272193
    3 8 8 < 6.21 6.60 1.272193
    3 3 17 < 534.54 569.41 1.272129
    3 -3 17 < 534.54 569.41 1.272129
    2 -9 4 < 45.05 64.23 1.271779
    2 9 4 < 45.05 64.23 1.271779
    6 6 8 < 131.33 327.68 1.271365
    6 -6 8 < 131.33 327.68 1.271365
    7 6 3 < 63.09 145.22 1.270719
    7 -6 3 < 63.09 145.22 1.270719
    1 3 18 < 197.01 478.59 1.270515
    1 -3 18 < 197.01 478.58 1.270515
    0 1 19 < 18.59 44.04 1.270483
    9 1 4 < 476.80 1129.56 1.270477
    9 -1 4 < 476.79 1129.56 1.270477
    1 0 19 < 2.02 4.89 1.270189
    9 2 2 < 97.71 242.45 1.270006
    9 -2 2 < 97.71 242.45 1.270006
    3 -5 15 < 14.99 31.02 1.269615
    3 5 15 < 14.99 31.02 1.269615
    6 2 14 < 76.51 151.46 1.269430
    6 -2 14 < 76.51 151.46 1.269430
    4 8 6 < 0.80 1.54 1.269034
    4 -8 6 < 0.80 1.54 1.269034
    1 8 10 < 177.73 376.10 1.268843
    1 -8 10 < 177.73 376.10 1.268843
    4 5 14 < 121.79 291.57 1.268202
    4 -5 14 < 121.79 291.57 1.268202
    3 1 18 < 6.98 18.96 1.268168
    3 -1 18 < 6.98 18.96 1.268168
    7 3 11 < 1.94 4.69 1.268006
    7 -3 11 < 1.94 4.69 1.268006
    5 1 16 < 220.81 529.10 1.267911
    5 -1 16 < 220.81 529.10 1.267911
    0 9 6 < 525.77 2215.34 1.266639
    5 4 14 < 63.27 131.17 1.265576
    5 -4 14 < 63.27 131.17 1.265576
    5 8 0 < 17.26 36.25 1.265007
    5 3 15 < 201.58 453.02 1.264943
    5 -3 15 < 201.58 453.02 1.264943
    4 7 10 < 270.84 570.91 1.264470
    4 -7 10 < 270.83 570.91 1.264470
    7 2 12 < 56.81 161.58 1.263620
    7 -2 12 < 56.81 161.58 1.263620
    5 8 1 < 144.86 276.01 1.263293
    5 -8 1 < 144.86 276.01 1.263293
    1 1 19 < 730.52 1212.93 1.263136
    1 -1 19 < 730.52 1212.94 1.263136
    0 7 13 < 162.06 260.37 1.263012
    3 9 0 < 383.14 615.97 1.262634
    6 7 4 < 307.07 453.35 1.262440
    6 -7 4 < 307.07 453.35 1.262440
    8 2 9 < 566.84 738.90 1.262100
    8 -2 9 < 566.84 738.90 1.262100
    9 0 5 < 642.47 744.41 1.262019
    9 2 3 o 155.45 217.45 1.261404
    9 -2 3 o 155.45 217.45 1.261404
    3 -9 1 < 717.45 1091.72 1.260930
    3 9 1 < 717.45 1091.72 1.260930
    5 7 8 < 540.10 877.56 1.260486
    5 -7 8 < 540.10 877.56 1.260486
    2 4 17 < 88.45 67.06 1.259507
    2 -4 17 < 88.45 67.06 1.259507
    1 9 6 < 107.56 81.55 1.259358
    1 -9 6 < 107.56 81.55 1.259358
    7 6 4 < 4.70 31.26 1.258705
    7 -6 4 < 4.70 31.26 1.258705
    0 6 15 < 32.54 65.92 1.258208
    5 8 2 < 158.71 321.52 1.258192
    5 -8 2 < 158.71 321.52 1.258192
    8 0 10 < 910.86 1297.97 1.257622
    2 -9 5 o 179.62 167.49 1.256356
    2 9 5 o 179.62 167.49 1.256356
    8 3 8 o 2181.38 2034.13 1.256254
    8 -3 8 o 2181.38 2034.13 1.256254
    4 2 17 o 323.54 299.30 1.256082
    4 -2 17 o 323.54 299.30 1.256082
    3 -9 2 o 1704.23 1549.40 1.255858
    3 9 2 o 1704.23 1549.40 1.255858
    1 7 13 o 1023.47 950.66 1.255794
    1 -7 13 o 1023.47 950.66 1.255794
    8 4 6 o 1142.09 1045.46 1.255192
    8 -4 6 o 1142.09 1045.46 1.255192
    9 1 5 o 242.10 221.62 1.255101
    9 -1 5 o 242.10 221.62 1.255101
    7 4 10 < 177.58 167.29 1.255007
    7 -4 10 < 177.58 167.29 1.255007
    5 6 11 < 273.97 329.83 1.254033
    5 -6 11 < 273.98 329.83 1.254033
    8 5 0 < 592.38 831.06 1.253832
    7 5 8 < 130.76 172.16 1.253647
    7 -5 8 < 130.76 172.16 1.253647
    2 5 16 < 68.37 81.01 1.253094
    2 -5 16 < 68.37 81.01 1.253094
    8 -5 1 < 72.51 83.16 1.252163
    8 5 1 < 72.51 83.16 1.252163
    1 6 15 < 509.19 504.72 1.251071
    1 -6 15 < 509.19 504.72 1.251071
    6 5 11 < 136.80 126.43 1.250933
    6 -5 11 < 136.80 126.43 1.250933
    8 1 10 < 25.99 21.28 1.250775
    8 -1 10 < 25.99 21.28 1.250775
    5 8 3 < 53.86 73.61 1.249826
    5 -8 3 < 53.86 73.61 1.249826
    0 2 19 < 0.02 0.02 1.249656
    9 2 4 < 895.17 1161.74 1.249650
    9 -2 4 < 895.17 1161.74 1.249650
    7 0 13 < 1084.28 1297.15 1.249085
    5 5 13 < 879.53 1052.20 1.249031
    5 -5 13 < 879.53 1052.20 1.249031
    2 3 18 < 448.11 484.01 1.248848
    2 -3 18 < 448.10 484.01 1.248848
    2 0 19 < 197.89 187.82 1.248537
    6 0 15 o 2277.11 1891.59 1.248046
    3 -9 3 o 339.02 266.09 1.247538
    3 9 3 o 339.02 266.09 1.247538
    3 2 18 o 548.09 430.19 1.247453
    3 -2 18 o 548.09 430.19 1.247453
    6 7 5 o 847.79 671.19 1.247351
    6 -7 5 o 847.78 671.19 1.247351
    2 -8 10 o 641.32 507.73 1.247259
    2 8 10 o 641.32 507.73 1.247259
    5 2 16 o 445.90 356.53 1.247208
    5 -2 16 o 445.90 356.52 1.247208
    8 -5 2 o 1775.67 1419.13 1.247195
    8 5 2 o 1775.67 1419.13 1.247195
    4 8 7 o 89.30 71.37 1.247075
    4 -8 7 o 89.30 71.37 1.247075
    0 9 7 < 269.61 211.44 1.244802
    7 6 5 < 784.99 994.32 1.243748
    7 -6 5 < 784.99 994.32 1.243748
    9 0 6 < 243.10 307.93 1.243668
    3 -8 9 < 580.11 709.02 1.243496
    3 8 9 < 580.11 709.02 1.243496
    3 -6 14 < 282.68 275.82 1.242724
    3 6 14 < 282.68 275.82 1.242724
    6 6 9 < 228.32 222.78 1.242722
    6 -6 9 < 228.32 222.78 1.242722
    1 2 19 < 30.23 28.12 1.242662
    1 -2 19 < 30.23 28.12 1.242662
    7 1 13 < 405.73 382.28 1.242376
    7 -1 13 < 405.73 382.28 1.242376
    9 3 0 < 150.94 142.22 1.242344
    2 1 19 < 276.65 314.64 1.241837
    2 -1 19 < 276.64 314.64 1.241837
    6 1 15 < 23.30 73.99 1.241354
    6 -1 15 < 23.30 73.99 1.241354
    3 -7 12 < 113.29 115.83 1.240818
    3 7 12 < 113.29 115.83 1.240818
    0 8 11 < 395.36 389.54 1.240786
    9 3 1 < 99.00 97.80 1.240721
    9 -3 1 < 99.00 97.80 1.240721
    8 -5 3 < 638.78 916.70 1.239046
    8 5 3 < 638.78 916.71 1.239046
_pd_meas_2theta_range_min     5.000
_pd_meas_2theta_range_max     59.990
_pd_meas_2theta_range_inc     0.01
_pd_meas_number_of_points     5500
_pd_meas_scan_method     ?
_pd_meas_special_details     ?
_refine_special_details     ?
_refine_ls_R_factor_all     0.0985
_refine_ls_R_factor_gt     0.0703
_refine_ls_wR_factor_all     0.0706
_refine_ls_wR_factor_gt     0.0663
_refine_ls_goodness_of_fit_all     1.35
_refine_ls_restrained_S_all     ?
_refine_ls_number_parameters     173
_refine_ls_number_restraints     132
_refine_ls_number_constraints     182
_refine_ls_hydrogen_treatment     constr
_refine_ls_weighting_scheme     sigma
_refine_ls_weighting_details     ?
_refine_ls_shift/su_max     0.0383
_refine_ls_shift/su_mean     0.0033
_refine_diff_density_max     ?
_refine_diff_density_min     ?
_refine_ls_extinction_method     ?
_refine_ls_extinction_coef     ?
loop_
    _atom_type_symbol
    _atom_type_scat_dispersion_real
    _atom_type_scat_dispersion_imag
    _atom_type_scat_source
    C 0.0125 0.0059 'International Tables Vol C tables 4.2.6.8 and 6.1.1.1'
    H 0.0000 0.0000 'International Tables Vol C tables 4.2.6.8 and 6.1.1.1'
    Cl 0.3064 0.4744 'International Tables Vol C tables 4.2.6.8 and 6.1.1.1'
    O 0.0353 0.0211 'International Tables Vol C tables 4.2.6.8 and 6.1.1.1'
_computing_data_collection     ?
_computing_cell_refinement     ?
_computing_data_reduction     ?
_computing_structure_solution     ?
_computing_structure_refinement     ?
_computing_molecular_graphics     ?
_computing_publication_material     ?
_pd_calibration_special_details     ?
_pd_prep_cool_rate     ?
_pd_prep_pressure     ?
_pd_prep_temperature     ?
_pd_proc_2theta_range_min     5
_pd_proc_2theta_range_max     59.99
_pd_proc_2theta_range_inc     0.01
loop_
    _pd_proc_2theta_corrected
    _pd_proc_ls_weight
    _pd_proc_intensity_net
    _pd_calc_intensity_net
    5.0500 14.53 211.01 200.96
    5.0600 14.49 209.87 200.66
    5.0700 14.58 212.65 200.37
    5.0800 14.28 203.98 200.09
    5.0900 13.63 185.85 199.80
    5.1000 13.86 192.20 199.53
    5.1100 13.79 190.23 199.25
    5.1200 14.33 205.25 198.98
    5.1300 13.78 189.88 198.71
    5.1400 14.27 203.71 198.44
    5.1500 14.02 196.62 198.18
    5.1600 13.97 195.07 197.92
    5.1700 13.95 194.69 197.66
    5.1800 14.02 196.67 197.41
    5.1900 13.65 186.40 197.15
    5.2000 14.22 202.21 196.91
    5.2100 14.10 198.67 196.66
    5.2200 13.44 180.51 196.42
    5.2300 13.94 194.34 196.18
    5.2400 13.42 180.14 195.94
    5.2500 14.31 204.65 195.70
    5.2600 14.04 197.15 195.47
    5.2700 13.83 191.25 195.24
    5.2800 14.27 203.51 195.01
    5.2900 13.71 188.10 194.78
    5.3000 14.39 207.07 194.55
    5.3100 14.55 211.81 194.33
    5.3200 14.00 196.01 194.11
    5.3300 14.28 203.94 193.89
    5.3400 13.80 190.52 193.68
    5.3500 13.60 184.98 193.46
    5.3600 14.28 203.97 193.25
    5.3700 14.14 200.01 193.04
    5.3800 14.49 209.91 192.83
    5.3900 13.40 179.48 192.63
    5.4000 13.67 186.99 192.42
    5.4100 13.35 178.31 192.22
    5.4200 13.69 187.41 192.02
    5.4300 13.56 183.85 191.82
    5.4400 13.37 178.72 191.62
    5.4500 13.82 191.00 191.42
    5.4600 13.83 191.39 191.23
    5.4700 13.56 183.90 191.03
    5.4800 13.65 186.27 190.84
    5.4900 14.03 196.96 190.65
    5.5000 13.56 183.91 190.46
    5.5100 14.02 196.58 190.27
    5.5200 13.52 182.75 190.09
    5.5300 13.58 184.34 189.90
    5.5400 13.59 184.71 189.72
    5.5500 13.55 183.55 189.54
    5.5600 13.79 190.28 189.67
    5.5700 14.04 197.01 189.51
    5.5800 13.40 179.61 189.36
    5.5900 13.45 180.81 189.21
    5.6000 13.54 183.20 189.07
    5.6100 13.95 194.66 188.93
    5.6200 13.49 182.01 188.79
    5.6300 13.14 172.53 188.66
    5.6400 14.40 207.36 188.54
    5.6500 12.97 168.19 188.43
    5.6600 13.97 195.12 188.33
    5.6700 13.65 186.41 188.24
    5.6800 13.21 174.53 188.17
    5.6900 13.36 178.50 188.12
    5.7000 14.08 198.30 188.09
    5.7100 13.98 195.54 188.09
    5.7200 13.45 180.91 188.13
    5.7300 13.76 189.22 188.23
    5.7400 13.48 181.70 188.39
    5.7500 14.04 197.16 188.66
    5.7600 13.96 194.79 189.07
    5.7700 14.04 197.17 189.69
    5.7800 14.43 208.26 190.74
    5.7900 15.45 238.76 193.71
    5.8000 18.46 340.94 209.40
    5.8100 22.70 515.17 291.14
    5.8200 28.28 799.51 591.97
    5.8300 37.39 1397.89 1302.55
    5.8400 51.14 2614.99 2286.50
    5.8500 51.53 2655.00 2857.03
    5.8600 47.16 2224.06 2464.15
    5.8700 37.23 1385.82 1496.43
    5.8800 23.84 568.38 699.48
    5.8900 17.20 295.87 326.53
    5.9000 13.93 194.08 215.99
    5.9100 13.76 189.34 193.27
    5.9200 14.16 200.44 188.92
    5.9300 14.33 205.21 187.38
    5.9400 14.38 206.80 186.38
    5.9500 14.37 206.39 185.62
    5.9600 14.21 202.04 185.02
    5.9700 13.41 179.86 184.52
    5.9800 12.82 164.41 184.10
    5.9900 13.19 173.93 183.73
    6.0000 13.96 194.93 183.41
    6.0100 13.85 191.78 183.12
    6.0200 13.40 179.51 182.85
    6.0300 13.32 177.52 182.60
    6.0400 13.92 193.78 182.36
    6.0500 13.53 183.09 182.14
    6.0600 13.55 183.47 181.93
    6.0700 13.81 190.62 181.73
    6.0800 13.19 173.99 181.54
    6.0900 13.47 181.52 181.35
    6.1000 13.53 183.10 181.16
    6.1100 13.43 180.34 180.98
    6.1200 13.27 176.00 180.81
    6.1300 12.99 168.87 180.63
    6.1400 13.39 179.16 180.47
    6.1500 13.27 176.00 180.30
    6.1600 13.52 182.74 179.85
    6.1700 12.98 168.48 179.71
    6.1800 13.68 187.13 179.56
    6.1900 12.87 165.71 179.42
    6.2000 13.49 181.97 179.27
    6.2100 13.64 185.94 179.13
    6.2200 12.97 168.11 178.99
    6.2300 12.73 162.16 178.84
    6.2400 13.19 174.06 178.70
    6.2500 13.77 189.53 178.55
    6.2600 14.50 210.16 178.41
    6.2700 13.10 171.69 178.27
    6.2800 13.16 173.29 178.12
    6.2900 13.67 186.78 177.98
    6.3000 13.36 178.46 177.84
    6.3100 13.90 193.13 177.79
    6.3200 13.84 191.57 177.66
    6.3300 14.40 207.43 177.52
    6.3400 14.32 205.05 177.39
    6.3500 13.62 185.61 177.26
    6.3600 13.68 187.20 177.12
    6.3700 13.27 176.11 177.00
    6.3800 13.30 176.90 176.87
    6.3900 13.08 170.97 176.74
    6.4000 13.55 183.68 176.62
    6.4100 12.86 165.42 176.50
    6.4200 13.60 184.87 176.39
    6.4300 12.45 155.12 176.28
    6.4400 13.51 182.50 176.17
    6.4500 12.83 164.64 176.08
    6.4600 13.54 183.30 175.99
    6.4700 12.91 166.65 175.91
    6.4800 13.05 170.24 175.85
    6.4900 13.00 169.05 175.82
    6.5000 12.96 167.87 175.81
    6.5100 13.42 180.17 175.85
    6.5200 13.17 173.43 175.95
    6.5300 13.23 175.02 176.18
    6.5400 13.27 176.21 176.95
    6.5500 14.06 197.63 181.13
    6.5600 15.74 247.65 203.04
    6.5700 17.94 321.87 284.20
    6.5800 22.22 493.79 477.96
    6.5900 28.68 822.45 750.91
    6.6000 29.44 866.95 916.34
    6.6100 27.65 764.57 815.62
    6.6200 20.53 421.59 548.56
    6.6300 15.79 249.33 323.27
    6.6400 13.69 187.40 215.57
    6.6500 13.31 177.08 182.93
    6.6600 12.90 166.35 176.28
    6.6700 12.81 163.98 176.41
    6.6800 13.46 181.06 181.38
    6.6900 14.17 200.91 193.53
    6.7000 14.19 201.30 209.68
    6.7100 13.79 190.20 217.85
    6.7200 13.41 179.88 209.79
    6.7300 13.28 176.32 193.14
    6.7400 13.49 181.88 180.07
    6.7500 13.11 171.96 174.05
    6.7600 13.16 173.14 172.18
    6.7700 12.54 157.26 171.66
    6.7800 12.95 167.60 171.42
    6.7900 13.53 183.09 171.23
    6.8000 13.04 169.99 171.05
    6.8100 12.41 154.12 170.88
    6.8200 13.04 170.01 170.71
    6.8300 13.10 171.61 170.55
    6.8400 12.90 166.46 170.40
    6.8500 12.87 165.65 170.24
    6.8600 13.02 169.63 170.09
    6.8700 12.61 158.92 169.93
    6.8800 12.42 154.14 169.78
    6.8900 12.65 160.10 169.63
    6.9000 12.79 163.69 169.49
    6.9100 13.19 174.04 169.25
    6.9200 12.75 162.51 169.11
    6.9300 12.29 151.00 168.97
    6.9400 13.30 176.83 168.82
    6.9500 12.92 166.91 168.68
    6.9600 13.56 184.00 168.54
    6.9700 12.50 156.17 168.40
    6.9800 12.78 163.33 168.26
    6.9900 12.58 158.17 168.12
    7.0000 12.55 157.39 167.98
    7.0100 13.07 170.90 167.84
    7.0200 13.61 185.21 167.70
    7.0300 12.90 166.53 167.55
    7.0400 12.53 157.00 167.42
    7.0500 12.45 155.02 167.28
    7.0600 12.67 160.60 167.14
    7.0700 13.06 170.55 167.00
    7.0800 13.21 174.53 166.86
    7.0900 12.97 168.17 166.72
    7.1000 13.08 170.96 166.58
    7.1100 13.81 190.84 166.44
    7.1200 13.33 177.71 166.30
    7.1300 12.78 163.40 166.16
    7.1400 12.55 157.45 166.02
    7.1500 13.20 174.17 165.88
    7.1600 13.06 170.60 165.74
    7.1700 13.17 173.38 165.60
    7.1800 12.83 164.63 165.46
    7.1900 13.39 179.35 165.32
    7.2000 12.47 155.50 165.18
    7.2100 13.14 172.60 165.04
    7.2200 13.06 170.60 164.90
    7.2300 12.44 154.70 164.76
    7.2400 13.32 177.38 164.62
    7.2500 12.23 149.54 164.48
    7.2600 12.94 167.44 164.34
    7.2700 13.18 173.81 164.20
    7.2800 13.36 178.57 164.06
    7.2900 12.52 156.71 163.92
    7.3000 12.71 161.49 163.78
    7.3100 12.68 160.71 163.64
    7.3200 12.71 161.51 163.50
    7.3300 13.23 175.04 163.37
    7.3400 13.42 180.21 163.23
    7.3500 13.00 169.07 163.09
    7.3600 12.57 157.94 162.95
    7.3700 12.79 163.52 162.81
    7.3800 12.69 161.14 162.67
    7.3900 12.88 165.92 162.53
    7.4000 12.69 161.16 162.51
    7.4100 12.52 156.77 162.49
    7.4200 12.68 160.75 162.46
    7.4300 12.69 161.16 162.44
    7.4400 13.10 171.53 162.42
    7.4500 12.82 164.36 162.40
    7.4600 13.35 178.28 162.38
    7.4700 12.87 165.56 162.35
    7.4800 12.55 157.60 162.33
    7.4900 12.73 161.98 162.31
    7.5000 12.22 149.25 162.29
    7.5100 12.93 167.17 162.27
    7.5200 12.88 165.98 162.25
    7.5300 12.95 167.58 162.22
    7.5400 12.14 147.28 162.20
    7.5500 13.17 173.56 162.18
    7.5600 12.73 162.02 162.16
    7.5700 12.40 153.67 162.14
    7.5800 13.59 184.73 162.12
    7.5900 12.67 160.45 162.10
    7.6000 12.93 167.21 162.07
    7.6100 12.48 155.67 162.05
    7.6200 13.11 172.00 162.03
    7.6300 12.56 157.67 162.01
    7.6400 13.16 173.20 161.99
    7.6500 12.87 165.64 161.97
    7.6600 12.75 162.47 161.94
    7.6700 12.71 161.66 161.92
    7.6800 12.48 155.69 161.90
    7.6900 12.40 153.71 161.88
    7.7000 12.11 146.55 161.86
    7.7100 12.99 168.86 161.84
    7.7200 13.06 170.45 161.82
    7.7300 12.83 164.49 161.79
    7.7400 13.34 178.03 161.77
    7.7500 12.98 168.47 161.75
    7.7600 12.45 154.93 161.73
    7.7700 12.67 160.51 161.71
    7.7800 12.87 165.70 161.69
    7.7900 12.46 155.35 161.67
    7.8000 13.49 182.05 161.65
    7.8100 13.43 180.46 161.62
    7.8200 13.10 171.70 161.60
    7.8300 12.76 162.94 161.58
    7.8400 12.51 156.58 161.56
    7.8500 12.67 160.56 161.54
    7.8600 12.58 158.18 161.52
    7.8700 12.80 163.76 161.50
    7.8800 12.86 165.35 161.48
    7.8900 12.62 159.39 161.45
    7.9000 12.29 151.02 161.43
    7.9100 12.84 164.96 161.41
    7.9200 12.83 164.58 161.39
    7.9300 12.92 166.97 161.37
    7.9400 12.31 151.43 161.35
    7.9500 12.83 164.58 161.33
    7.9600 12.58 158.22 161.31
    7.9700 13.14 172.58 161.28
    7.9800 13.05 170.19 161.26
    7.9900 12.61 159.03 161.24
    8.0000 13.00 169.00 161.22
    8.0100 12.97 168.19 161.20
    8.0200 12.80 163.81 161.18
    8.0300 13.06 170.60 161.18
    8.0400 13.29 176.57 161.16
    8.0500 12.95 167.82 161.14
    8.0600 12.48 155.87 161.12
    8.0700 12.75 162.65 161.10
    8.0800 13.03 169.82 161.08
    8.0900 12.71 161.46 161.07
    8.1000 12.69 161.06 161.05
    8.1100 12.56 157.87 161.03
    8.1200 12.64 159.87 161.06
    8.1300 12.79 163.46 161.04
    8.1400 13.00 169.05 161.03
    8.1500 12.91 166.67 161.02
    8.1600 12.88 165.87 161.26
    8.1700 12.44 154.71 161.27
    8.1800 12.96 167.88 161.29
    8.1900 13.50 182.24 161.31
    8.2000 13.00 169.08 161.33
    8.2100 12.60 158.72 161.37
    8.2200 12.45 155.12 161.42
    8.2300 12.94 167.49 161.48
    8.2400 11.97 143.17 161.56
    8.2500 12.41 153.94 161.67
    8.2600 12.96 167.91 161.85
    8.2700 12.80 163.91 162.38
    8.2800 12.58 158.34 164.77
    8.2900 12.73 161.95 174.54
    8.3000 13.97 195.04 201.92
    8.3100 15.83 250.49 249.81
    8.3200 16.92 286.43 293.96
    8.3300 16.19 262.08 296.05
    8.3400 15.66 245.34 254.28
    8.3500 13.94 194.27 206.27
    8.3600 13.08 171.15 179.25
    8.3700 12.99 168.75 176.28
    8.3800 14.08 198.28 200.59
    8.3900 16.58 274.89 264.96
    8.4000 18.23 332.32 361.15
    8.4100 20.41 416.54 439.14
    8.4200 21.65 468.82 485.39
    8.4300 25.16 633.21 629.56
    8.4400 31.74 1007.16 1017.60
    8.4500 40.30 1623.72 1504.15
    8.4600 40.22 1617.33 1656.96
    8.4700 34.26 1174.05 1293.42
    8.4800 27.58 760.63 746.73
    8.4900 19.02 361.94 371.57
    8.5000 14.25 203.14 216.97
    8.5100 13.88 192.77 175.10
    8.5200 13.09 171.23 166.52
    8.5300 12.52 156.85 164.43
    8.5400 12.36 152.87 163.45
    8.5500 12.85 165.25 162.77
    8.5600 12.51 156.48 162.27
    8.5700 12.81 164.06 161.88
    8.5800 12.38 153.29 161.57
    8.5900 13.07 170.85 161.33
    8.6000 12.46 155.29 161.12
    8.6100 13.22 174.85 160.96
    8.6200 12.22 149.32 160.81
    8.6300 12.53 156.91 160.66
    8.6400 13.49 182.05 160.56
    8.6500 12.14 147.33 160.76
    8.6600 12.83 164.49 160.70
    8.6700 13.55 183.66 160.64
    8.6800 14.13 199.64 160.60
    8.6900 14.44 208.42 160.56
    8.7000 14.03 196.86 160.53
    8.7100 13.73 188.49 160.51
    8.7200 13.82 190.88 160.46
    8.7300 12.98 168.52 160.46
    8.7400 12.42 154.15 160.47
    8.7500 12.84 164.95 160.49
    8.7600 12.45 154.96 160.28
    8.7700 12.37 152.97 160.34
    8.7800 12.95 167.75 160.41
    8.7900 13.00 168.95 160.51
    8.8000 13.12 172.15 160.62
    8.8100 11.86 140.60 160.77
    8.8200 12.53 156.99 160.95
    8.8300 12.51 156.59 161.19
    8.8400 12.63 159.40 161.49
    8.8500 12.62 159.39 161.90
    8.8600 12.83 164.60 162.45
    8.8700 13.09 171.40 163.21
    8.8800 12.81 164.21 164.37
    8.8900 13.11 171.80 167.03
    8.9000 13.62 185.38 178.56
    8.9100 17.03 290.05 234.01
    8.9200 22.66 513.41 431.56
    8.9300 31.89 1016.86 891.39
    8.9400 41.16 1694.12 1527.67
    8.9500 41.69 1738.29 1904.95
    8.9600 39.77 1581.35 1661.49
    8.9700 30.30 917.92 1038.34
    8.9800 20.13 405.23 514.78
    8.9900 15.38 236.58 262.86
    9.0000 13.47 181.44 185.12
    9.0100 12.99 168.65 168.07
    9.0200 12.66 160.26 164.42
    9.0300 13.16 173.06 163.04
    9.0400 13.02 169.47 162.15
    9.0500 12.63 159.48 161.51
    9.0600 13.14 172.67 161.03
    9.0700 12.52 156.68 160.65
    9.0800 12.11 146.70 160.35
    9.0900 13.29 176.69 160.10
    9.1000 13.14 172.69 159.90
    9.1100 12.36 152.71 159.72
    9.1200 12.87 165.51 159.57
    9.1300 12.37 153.12 159.45
    9.1400 12.60 158.71 159.33
    9.1500 12.15 147.51 159.23
    9.1600 12.42 154.32 159.14
    9.1700 12.44 154.72 159.06
    9.1800 12.68 160.73 158.98
    9.1900 12.69 161.12 158.91
    9.2000 12.21 149.12 158.85
    9.2100 12.57 157.92 158.79
    9.2200 13.23 175.13 158.73
    9.2300 12.91 166.74 158.67
    9.2400 12.46 155.14 158.62
    9.2500 12.54 157.14 158.57
    9.2600 12.80 163.94 158.24
    9.2700 12.25 149.95 158.21
    9.2800 12.44 154.76 158.18
    9.2900 13.11 171.96 158.15
    9.3000 12.34 152.37 158.12
    9.3100 12.70 161.17 158.09
    9.3200 12.02 144.38 158.07
    9.3300 12.47 155.59 158.04
    9.3400 12.76 162.77 158.01
    9.3500 12.39 153.59 157.98
    9.3600 12.47 155.59 157.95
    9.3700 12.59 158.39 157.92
    9.3800 12.41 153.99 157.89
    9.3900 12.92 166.80 157.86
    9.4000 12.60 158.80 157.83
    9.4100 12.81 164.01 157.80
    9.4200 12.73 162.02 157.77
    9.4300 12.82 164.43 157.74
    9.4400 12.18 148.42 157.71
    9.4500 12.81 164.03 157.68
    9.4600 12.78 163.23 157.64
    9.4700 12.60 158.85 157.69
    9.4800 12.48 155.65 157.74
    9.4900 12.27 150.45 157.78
    9.5000 12.23 149.65 157.83
    9.5100 12.23 149.66 157.87
    9.5200 12.57 158.05 157.92
    9.5300 12.95 167.67 157.96
    9.5400 12.41 154.07 158.01
    9.5500 12.56 157.68 158.05
    9.5600 12.32 151.68 158.10
    9.5700 13.43 180.49 158.14
    9.5800 13.04 170.08 158.19
    9.5900 12.75 162.49 158.23
    9.6000 13.01 169.30 158.28
    9.6100 12.49 156.10 158.32
    9.6200 12.61 158.91 158.36
    9.6300 13.10 171.72 158.41
    9.6400 12.43 154.51 158.45
    9.6500 12.53 156.92 158.50
    9.6600 12.87 165.72 158.54
    9.6700 12.56 157.72 158.58
    9.6800 12.24 149.71 158.63
    9.6900 12.67 160.53 158.67
    9.7000 12.69 160.94 158.71
    9.7100 12.62 159.34 158.76
    9.7200 12.67 160.55 158.80
    9.7300 12.53 156.96 158.84
    9.7400 13.21 174.56 158.88
    9.7500 12.22 149.34 158.93
    9.7600 12.11 146.55 158.97
    9.7700 12.29 150.95 159.01
    9.7800 12.58 158.17 159.05
    9.7900 12.84 164.97 159.09
    9.8000 12.11 146.55 159.14
    9.8100 12.75 162.58 159.18
    9.8200 12.74 162.19 159.22
    9.8300 13.27 176.20 159.26
    9.8400 12.50 156.19 159.30
    9.8500 12.85 165.00 159.34
    9.8600 12.86 165.41 159.38
    9.8700 12.75 162.61 159.43
    9.8800 12.30 151.40 159.47
    9.8900 12.26 150.21 159.51
    9.9000 12.97 168.23 159.55
    9.9100 12.95 167.83 159.59
    9.9200 12.80 163.83 159.63
    9.9300 12.92 167.04 159.67
    9.9400 12.50 156.23 159.71
    9.9500 12.39 153.43 159.75
    9.9600 13.05 170.25 159.79
    9.9700 12.89 166.24 159.83
    9.9800 12.32 151.83 159.87
    9.9900 12.24 149.83 161.46
    10.0000 12.94 167.46 161.61
    10.0100 13.17 173.49 161.77
    10.0200 12.19 148.65 161.95
    10.0300 12.86 165.48 162.13
    10.0400 12.36 152.67 162.34
    10.0500 12.79 163.48 162.57
    10.0600 12.34 152.27 162.82
    10.0700 12.96 167.89 163.10
    10.0800 12.88 165.90 163.41
    10.0900 12.13 147.06 163.77
    10.1000 13.03 169.91 164.18
    10.1100 13.59 184.74 164.65
    10.1200 13.17 173.52 165.20
    10.1300 12.88 165.91 165.84
    10.1400 12.40 153.88 166.60
    10.1500 12.96 167.92 167.52
    10.1600 12.37 153.09 168.65
    10.1700 13.04 169.92 170.04
    10.1800 13.00 169.13 171.81
    10.1900 13.02 169.54 174.09
    10.2000 13.33 177.57 177.11
    10.2100 13.43 180.38 181.24
    10.2200 13.13 172.36 187.44
    10.2300 14.16 200.42 201.06
    10.2400 15.88 252.13 257.04
    10.2500 20.71 428.92 517.24
    10.2600 34.11 1163.75 1425.21
    10.2700 59.59 3550.54 3507.86
    10.2800 78.50 6162.51 6356.87
    10.2900 87.57 7668.56 8019.68
    10.3000 81.19 6592.52 6900.22
    10.3100 67.31 4530.54 4105.58
    10.3200 46.64 2175.05 1766.53
    10.3300 27.85 775.79 637.87
    10.3400 16.50 272.23 286.32
    10.3500 14.19 201.27 207.54
    10.3600 13.54 183.23 189.94
    10.3700 12.25 149.95 183.07
    10.3800 12.88 165.99 178.70
    10.3900 12.81 164.00 175.57
    10.4000 12.82 164.40 173.24
    10.4100 12.99 168.83 171.47
    10.4200 12.82 164.41 170.10
    10.4300 12.41 153.98 169.02
    10.4400 12.23 149.57 168.17
    10.4500 12.49 155.99 167.48
    10.4600 12.70 161.20 166.94
    10.4700 12.85 165.22 166.50
    10.4800 12.43 154.40 166.16
    10.4900 13.12 172.06 165.91
    10.5000 12.67 160.43 165.73
    10.5100 13.33 177.68 165.64
    10.5200 12.87 165.64 165.65
    10.5300 12.87 165.65 165.84
    10.5400 12.63 159.64 166.76
    10.5500 13.15 172.88 171.60
    10.5600 13.91 193.35 191.85
    10.5700 15.12 228.64 249.79
    10.5800 17.79 316.49 354.08
    10.5900 20.32 412.80 455.83
    10.6000 19.42 377.09 467.36
    10.6100 17.23 296.86 379.29
    10.6200 16.22 263.15 273.06
    10.6300 15.15 229.48 220.26
    10.6400 15.92 253.56 236.37
    10.6500 18.29 334.61 300.00
    10.6600 19.35 374.34 358.69
    10.6700 19.52 381.18 354.58
    10.6800 17.54 307.75 290.59
    10.6900 15.75 247.95 221.74
    10.7000 13.66 186.58 182.24
    10.7100 13.04 170.14 168.01
    10.7200 12.83 164.52 164.46
    10.7300 12.59 158.50 163.70
    10.7400 12.51 156.51 163.45
    10.7500 12.83 164.54 163.32
    10.7600 12.75 162.52 163.22
    10.7700 12.75 162.53 163.16
    10.7800 12.95 167.76 163.12
    10.7900 12.57 158.12 163.09
    10.8000 12.62 159.33 163.08
    10.8100 12.61 158.94 163.07
    10.8200 12.53 156.95 163.07
    10.8300 12.91 166.58 163.07
    10.8400 12.77 162.98 163.08
    10.8500 12.70 161.37 163.09
    10.8600 12.78 163.38 163.10
    10.8700 12.80 163.79 163.12
    10.8800 12.46 155.36 163.14
    10.8900 13.32 177.46 163.16
    10.9000 12.86 165.41 163.12
    10.9100 12.14 147.33 163.14
    10.9200 13.05 170.23 163.17
    10.9300 12.64 159.79 163.19
    10.9400 13.31 177.06 163.22
    10.9500 12.94 167.44 163.25
    10.9600 12.19 148.56 163.27
    10.9700 13.16 173.06 163.26
    10.9800 12.32 151.78 163.29
    10.9900 12.83 164.64 163.32
    11.0000 12.83 164.65 163.35
    11.0100 12.88 165.86 163.38
    11.0200 12.85 165.07 163.41
    11.0300 12.58 158.25 163.45
    11.0400 13.35 178.33 163.48
    11.0500 12.60 158.65 163.51
    11.0600 12.63 159.45 163.54
    11.0700 13.65 186.38 163.57
    11.0800 13.13 172.31 163.60
    11.0900 13.22 174.73 163.63
    11.1000 12.90 166.31 163.66
    11.1100 12.08 145.81 163.69
    11.1200 12.97 168.32 163.79
    11.1300 12.99 168.72 163.89
    11.1400 12.76 162.70 163.99
    11.1500 13.08 171.14 164.09
    11.1600 12.53 157.09 164.19
    11.1700 12.88 165.93 164.29
    11.1800 13.08 171.16 164.39
    11.1900 13.65 186.43 164.49
    11.2000 12.99 168.74 164.59
    11.2100 13.37 178.79 164.69
    11.2200 13.16 173.17 164.79
    11.2300 12.65 159.91 164.89
    11.2400 12.66 160.33 164.99
    11.2500 12.37 153.09 165.09
    11.2600 13.24 175.21 165.19
    11.2700 12.29 151.09 165.29
    11.2800 12.76 162.75 165.39
    11.2900 13.61 185.26 165.49
    11.3000 12.71 161.54 165.59
    11.3100 13.19 174.01 165.69
    11.3200 13.16 173.22 165.79
    11.3300 13.39 179.25 165.89
    11.3400 12.77 163.17 165.99
    11.3500 12.71 161.57 166.09
    11.3600 12.99 168.80 166.19
    11.3700 13.24 175.24 166.29
    11.3800 13.02 169.62 166.39
    11.3900 12.77 163.19 166.49
    11.4000 12.98 168.43 166.59
    11.4100 13.25 175.66 166.69
    11.4200 12.70 161.19 169.19
    11.4300 13.07 170.87 169.46
    11.4400 13.61 185.35 169.74
    11.4500 12.85 165.24 170.05
    11.4600 12.78 163.24 170.38
    11.4700 13.06 170.47 170.75
    11.4800 12.95 167.68 171.14
    11.4900 12.96 168.08 171.57
    11.5000 12.87 165.67 172.05
    11.5100 12.96 168.08 172.59
    11.5200 13.42 180.15 173.19
    11.5300 13.59 184.57 173.87
    11.5400 13.70 187.79 174.65
    11.5500 12.68 160.86 175.59
    11.5600 13.20 174.13 176.65
    11.5700 13.38 178.96 177.91
    11.5800 12.62 159.27 179.41
    11.5900 14.01 196.26 181.25
    11.6000 13.70 187.81 183.53
    11.6100 13.73 188.63 186.42
    11.6200 14.18 201.11 190.15
    11.6300 14.05 197.48 195.11
    11.6400 14.59 212.77 201.97
    11.6500 14.55 211.57 212.73
    11.6600 16.06 257.84 239.48
    11.6700 21.56 464.62 354.58
    11.6800 33.54 1125.13 850.78
    11.6900 46.34 2147.09 2399.50
    11.7000 74.08 5487.34 5529.65
    11.7100 95.58 9135.25 9173.06
    11.7300 86.60 7499.41 8239.23
    11.7400 65.17 4247.31 4499.79
    11.7500 43.39 1883.02 1807.11
    11.7600 29.60 875.92 639.71
    11.7700 19.71 388.67 303.94
    11.7800 16.25 263.94 230.10
    11.7900 14.77 218.08 211.45
    11.8000 14.74 217.29 203.88
    11.8100 14.33 205.23 204.27
    11.8200 14.86 220.92 221.41
    11.8300 16.27 264.78 265.64
    11.8400 16.84 283.71 325.61
    11.8500 19.51 380.73 357.18
    11.8600 18.33 336.05 327.78
    11.8700 17.91 320.76 264.70
    11.8800 15.57 242.28 213.60
    11.8900 13.80 190.38 189.03
    11.9000 13.41 179.91 181.88
    11.9100 13.83 191.18 179.79
    11.9200 13.31 177.11 179.02
    11.9300 13.89 192.80 178.57
    11.9400 12.80 163.83 178.25
    11.9500 12.86 165.44 178.03
    11.9600 12.96 167.86 177.89
    11.9700 13.03 169.89 177.83
    11.9800 12.93 167.07 177.83
    11.9900 13.20 174.32 177.90
    12.0000 13.47 181.57 178.04
    12.0100 13.55 183.59 178.27
    12.0200 13.56 183.99 178.60
    12.0300 13.90 193.26 176.92
    12.0400 13.17 173.53 178.34
    12.0500 13.73 188.43 183.33
    12.0600 13.64 186.02 200.79
    12.0700 14.80 219.04 244.72
    12.0800 18.57 344.69 314.27
    12.0900 18.69 349.13 370.40
    12.1000 18.29 334.62 363.45
    12.1100 16.50 272.22 301.88
    12.1200 15.40 237.20 239.30
    12.1300 14.88 221.50 206.27
    12.1400 13.85 191.71 199.05
    12.1500 14.06 197.76 214.57
    12.1600 16.20 262.60 293.26
    12.1700 22.17 491.38 599.57
    12.1800 38.17 1456.82 1415.66
    12.1900 55.63 3095.00 2780.13
    12.2000 66.83 4466.30 3977.37
    12.2100 62.18 3866.34 3959.32
    12.2200 48.76 2377.64 2744.88
    12.2300 32.88 1081.20 1389.78
    12.2400 20.96 439.49 589.33
    12.2500 15.97 255.00 291.60
    12.2600 14.99 224.78 215.24
    12.2700 14.04 196.99 198.68
    12.2800 13.92 193.77 193.71
    12.2900 14.12 199.41 191.18
    12.3000 14.39 207.08 189.67
    12.3100 14.01 196.21 188.86
    12.3200 13.60 184.93 188.59
    12.3300 13.27 176.07 188.82
    12.3400 13.44 180.51 189.56
    12.3500 13.32 177.30 190.88
    12.3600 14.15 200.27 192.96
    12.3700 13.99 195.83 196.17
    12.3800 14.36 206.31 202.07
    12.3900 15.47 239.36 220.77
    12.4000 18.96 359.46 305.68
    12.4100 25.77 664.14 636.89
    12.4200 39.77 1581.75 1529.68
    12.4300 57.75 3334.58 3044.15
    12.4400 62.99 3967.94 4403.73
    12.4500 65.04 4230.76 4424.01
    12.4600 56.74 3219.44 3084.47
    12.4700 39.03 1523.57 1560.57
    12.4800 27.14 736.83 650.64
    12.4900 19.29 372.04 309.55
    12.5000 15.67 245.48 221.34
    12.5100 14.96 223.72 200.98
    12.5200 14.07 197.95 194.77
    12.5300 14.07 197.94 191.33
    12.5400 13.71 187.87 188.96
    12.5500 13.91 193.53 187.24
    12.5600 13.24 175.38 185.96
    12.5700 13.60 185.06 184.99
    12.5800 13.77 189.51 184.24
    12.5900 13.77 189.51 183.66
    12.6000 13.17 173.39 183.21
    12.6100 13.34 177.83 182.86
    12.6200 13.43 180.26 182.59
    12.6300 13.23 175.03 182.37
    12.6400 14.19 201.24 182.20
    12.6500 13.81 190.76 182.08
    12.6600 13.81 190.76 181.98
    12.6700 13.03 169.78 181.92
    12.6800 12.98 168.58 181.87
    12.6900 14.00 196.00 181.85
    12.7000 13.52 182.72 181.84
    12.7100 13.49 181.93 181.93
    12.7200 13.22 174.66 182.04
    12.7300 13.31 177.08 182.16
    12.7400 13.47 181.53 182.28
    12.7500 13.59 184.76 182.42
    12.7600 13.22 174.69 181.57
    12.7700 13.89 192.83 181.78
    12.7800 13.34 177.91 181.99
    12.7900 14.37 206.55 182.20
    12.8000 13.65 186.38 182.40
    12.8100 13.67 186.78 182.61
    12.8200 13.87 192.45 182.82
    12.8300 13.19 173.90 183.02
    12.8400 13.56 183.99 183.39
    12.8500 13.22 174.72 183.61
    12.8600 13.37 178.75 183.83
    12.8700 13.56 183.99 184.06
    12.8800 13.56 183.99 184.28
    12.8900 13.39 179.16 184.51
    12.9000 13.71 188.05 184.74
    12.9100 13.49 181.99 184.98
    12.9200 13.61 185.23 185.21
    12.9300 13.89 192.90 185.45
    12.9400 13.16 173.12 185.70
    12.9500 13.34 177.97 185.95
    12.9600 13.79 190.09 186.20
    12.9700 14.00 196.13 186.47
    12.9800 13.88 192.52 186.75
    12.9900 13.70 187.67 187.04
    13.0000 13.48 181.62 187.35
    13.0100 13.66 186.47 187.74
    13.0200 13.20 174.36 188.10
    13.0300 13.64 186.07 188.51
    13.0400 13.42 180.02 188.99
    13.0500 13.95 194.55 189.54
    13.0600 13.93 194.16 190.24
    13.0700 14.24 202.65 191.23
    13.0800 13.99 195.78 193.47
    13.0900 14.45 208.70 202.32
    13.1000 15.56 242.22 237.83
    13.1100 18.37 337.49 341.45
    13.1200 23.53 553.54 536.77
    13.1300 27.17 738.02 744.56
    13.1400 27.32 746.15 797.63
    13.1500 24.97 623.44 643.43
    13.1600 21.21 449.79 427.71
    13.1700 18.32 335.53 287.65
    13.1800 15.41 237.42 237.11
    13.1900 15.53 241.07 227.67
    13.2000 14.59 212.81 221.92
    13.2100 14.60 213.21 211.76
    13.2200 14.66 214.84 202.69
    13.2300 14.49 209.98 197.91
    13.2400 13.75 188.99 196.26
    13.2500 13.89 193.03 196.19
    13.2600 14.00 195.87 198.08
    13.2700 14.46 209.19 206.84
    13.2800 15.44 238.27 235.39
    13.2900 16.98 288.35 297.05
    13.3000 18.17 329.97 376.62
    13.3100 19.75 390.15 418.01
    13.3200 18.91 357.45 381.46
    13.3300 17.90 320.28 303.31
    13.3400 15.99 255.67 240.84
    13.3500 14.96 223.76 211.79
    13.3600 15.99 255.68 203.56
    13.3700 14.11 199.13 202.84
    13.3800 14.49 210.05 204.52
    13.3900 14.51 210.45 209.84
    13.4000 15.70 246.40 231.49
    13.4100 16.65 277.12 311.78
    13.4200 22.79 519.49 524.56
    13.4300 29.52 871.38 894.22
    13.4400 33.57 1127.15 1290.17
    13.4500 38.11 1452.00 1525.68
    13.4600 39.38 1550.94 1600.44
    13.4700 38.98 1519.14 1562.42
    13.4800 33.80 1142.61 1311.56
    13.4900 28.89 834.76 886.01
    13.5000 24.02 577.02 508.62
    13.5100 19.11 365.29 304.09
    13.5200 15.16 229.92 231.35
    13.5300 15.20 231.13 212.80
    13.5400 14.13 199.61 208.45
    13.5500 14.96 223.86 206.98
    13.5600 14.30 204.47 206.31
    13.5700 14.54 211.34 206.25
    13.5800 13.85 191.96 207.78
    13.5900 14.14 200.04 215.63
    13.6000 14.68 215.41 242.10
    13.6100 16.89 285.35 300.64
    13.6200 18.69 349.20 378.22
    13.6300 20.42 417.15 421.47
    13.6400 20.08 403.39 388.97
    13.6500 17.85 318.51 313.14
    13.6600 16.43 270.03 250.76
    13.6700 14.87 221.12 221.05
    13.6800 14.39 206.95 212.40
    13.6900 14.98 224.34 211.46
    13.7000 14.76 217.89 212.65
    13.7100 14.88 221.55 214.79
    13.7200 15.29 233.68 218.16
    13.7300 14.67 215.09 225.45
    13.7400 16.12 259.96 253.09
    13.7500 19.08 363.90 371.77
    13.7600 26.13 682.85 760.65
    13.7700 41.82 1749.05 1608.23
    13.7800 51.18 2619.36 2712.88
    13.7900 53.65 2877.92 3301.57
    13.8000 54.54 2974.39 2804.61
    13.8100 45.85 2102.67 1709.57
    13.8200 29.32 859.70 820.05
    13.8300 22.00 484.06 394.03
    13.8400 17.50 306.11 259.78
    13.8500 15.56 242.24 228.30
    13.8600 15.14 229.30 220.50
    13.8700 15.17 230.12 217.19
    13.8800 14.63 213.93 215.10
    13.8900 14.67 215.16 213.66
    13.9000 15.13 228.91 212.64
    13.9100 14.43 208.29 211.90
    13.9200 14.25 203.03 211.38
    13.9300 14.75 217.59 211.00
    13.9400 14.09 198.60 210.69
    13.9500 14.42 207.90 210.52
    13.9600 14.61 213.58 210.42
    13.9700 14.33 205.48 210.37
    13.9800 14.60 213.19 210.37
    13.9900 14.78 218.45 210.40
    14.0000 14.55 211.59 210.45
    14.0100 14.77 218.06 210.53
    14.0200 14.53 211.19 210.63
    14.0300 14.14 199.87 210.75
    14.0400 14.88 221.32 210.88
    14.0500 14.55 211.61 211.02
    14.0600 14.25 203.12 211.17
    14.0700 14.73 216.88 211.33
    14.0800 14.62 213.65 211.50
    14.0900 13.98 195.44 211.68
    14.1000 14.97 224.18 211.07
    14.1100 14.18 201.10 211.30
    14.1200 14.67 215.28 211.54
    14.1300 14.77 218.12 211.95
    14.1400 14.42 208.02 212.37
    14.1500 14.60 213.26 212.79
    14.1600 14.15 200.32 213.21
    14.1700 14.80 218.92 213.97
    14.1800 14.93 222.99 214.41
    14.1900 14.88 221.37 214.86
    14.2000 14.59 212.87 215.31
    14.2100 15.35 235.54 215.76
    14.2200 13.88 192.66 216.22
    14.2300 15.07 227.04 216.68
    14.2400 15.07 227.06 217.15
    14.2500 15.01 225.45 217.64
    14.2600 14.49 210.05 218.13
    14.2700 15.11 228.29 218.62
    14.2800 15.12 228.68 219.13
    14.2900 15.16 229.91 219.65
    14.3000 14.72 216.56 220.18
    14.3100 15.18 230.35 220.74
    14.3200 14.92 222.66 221.33
    14.3300 15.22 231.58 221.95
    14.3400 15.08 227.53 222.62
    14.3500 14.91 222.28 223.35
    14.3600 15.10 227.95 224.17
    14.3700 15.59 242.92 225.10
    14.3800 15.20 231.19 226.21
    14.3900 14.94 223.10 227.57
    14.4000 15.88 252.25 229.75
    14.4100 15.43 238.08 233.31
    14.4200 15.47 239.31 245.67
    14.4300 16.82 283.05 296.34
    14.4400 20.56 422.76 457.16
    14.4500 28.64 820.44 797.06
    14.4600 34.67 1202.28 1225.10
    14.4700 36.92 1363.16 1434.39
    14.4800 35.77 1279.76 1221.20
    14.4900 28.36 804.34 793.85
    14.5000 20.06 402.58 458.01
    14.5100 16.87 284.74 303.08
    14.5200 15.18 230.47 263.44
    14.5300 16.50 272.20 272.17
    14.5400 17.29 298.93 295.67
    14.5500 17.48 305.42 308.97
    14.5600 17.53 307.46 297.30
    14.5700 16.66 277.51 271.66
    14.5800 15.92 253.60 250.87
    14.5900 15.53 241.05 241.15
    14.6000 15.84 250.75 238.58
    14.6100 15.34 235.37 238.73
    14.6200 15.00 224.86 239.76
    14.6300 15.22 231.74 241.40
    14.6400 15.76 248.36 244.64
    14.6500 15.40 237.02 255.64
    14.6600 17.09 292.13 300.97
    14.6700 19.67 386.95 446.67
    14.6800 27.42 752.00 762.45
    14.6900 35.73 1276.70 1174.38
    14.7000 36.67 1344.81 1396.66
    14.7100 34.99 1224.47 1216.87
    14.7200 29.05 844.05 819.69
    14.7300 21.82 476.15 525.68
    14.7400 21.11 445.76 483.26
    14.7500 25.77 664.15 671.70
    14.7600 30.70 942.54 944.95
    14.7700 32.74 1072.20 1060.00
    14.7800 29.77 886.28 893.00
    14.7900 24.39 594.95 602.35
    14.8000 18.94 358.68 385.01
    14.8100 17.28 298.69 286.82
    14.8200 16.07 258.18 257.22
    14.8300 15.97 254.96 250.50
    14.8400 15.70 246.43 248.95
    14.8500 15.81 250.09 248.49
    14.8600 15.41 237.51 248.41
    14.8700 15.61 243.59 248.64
    14.8800 15.85 251.30 249.14
    14.8900 16.18 261.86 249.95
    14.9000 15.85 251.32 251.34
    14.9100 15.60 243.23 254.99
    14.9200 16.13 260.27 269.82
    14.9300 17.48 305.67 326.05
    14.9400 21.53 463.35 478.15
    14.9500 25.80 665.63 741.79
    14.9600 30.52 931.18 991.13
    14.9700 30.56 934.09 1014.85
    14.9800 29.85 891.07 789.36
    14.9900 22.91 525.03 515.86
    15.0000 17.49 306.07 344.86
    15.0100 16.62 276.10 277.48
    15.0200 15.73 247.32 259.47
    15.0300 15.30 233.96 255.58
    15.0400 15.64 244.51 254.58
    15.0500 15.51 240.46 254.21
    15.0600 15.69 246.14 254.07
    15.0700 15.87 251.81 254.08
    15.0800 15.79 249.38 253.97
    15.0900 16.19 261.96 254.16
    15.1000 16.21 262.78 254.40
    15.1100 15.72 246.98 254.68
    15.1200 16.24 263.59 254.99
    15.1300 15.98 255.51 255.32
    15.1400 15.78 249.02 255.67
    15.1500 15.78 249.00 256.03
    15.1600 15.86 251.44 256.40
    15.1700 15.77 248.63 256.78
    15.1800 15.82 250.24 257.17
    15.1900 15.65 244.98 257.56
    15.2000 16.02 256.75 259.15
    15.2100 16.24 263.65 260.75
    15.2200 16.16 261.25 262.35
    15.2300 16.05 257.60 263.95
    15.2400 15.67 245.43 265.56
    15.2500 15.95 254.36 267.17
    15.2600 16.88 284.77 268.78
    15.2700 16.21 262.67 270.39
    15.2800 16.09 258.97 271.79
    15.2900 17.12 293.12 273.42
    15.3000 17.09 292.05 275.05
    15.3100 17.60 309.92 276.67
    15.3200 17.72 313.84 278.30
    15.3300 17.28 298.48 279.93
    15.3400 17.25 297.73 281.56
    15.3500 17.55 308.09 283.19
    15.3600 18.11 327.96 284.81
    15.3700 17.59 309.33 286.44
    15.3800 17.33 300.26 288.07
    15.3900 17.56 308.22 289.70
    15.4000 17.56 308.25 291.33
    15.4100 17.99 323.78 292.95
    15.4200 18.03 325.04 294.58
    15.4300 17.87 319.50 296.21
    15.4400 17.49 306.00 297.84
    15.4500 17.48 305.63 299.47
    15.4600 18.16 329.89 301.10
    15.4700 17.61 310.04 302.73
    15.4800 17.75 315.24 304.36
    15.4900 17.31 299.73 305.98
    15.5000 17.37 301.75 307.61
    15.5100 17.99 323.63 309.24
    15.5200 18.07 326.43 310.87
    15.5300 18.16 329.61 312.50
    15.5400 17.75 314.93 314.13
    15.5500 18.34 336.41 315.76
    15.5600 17.45 304.62 317.39
    15.5700 17.70 313.40 319.14
    15.5800 18.48 341.64 320.77
    15.5900 17.73 314.21 322.41
    15.6000 18.51 342.48 324.05
    15.6100 18.85 355.23 325.69
    15.6200 17.59 309.48 327.33
    15.6300 17.73 314.30 327.76
    15.6400 17.16 294.39 328.18
    15.6500 18.26 333.39 328.61
    15.6600 18.06 326.25 329.04
    15.6700 17.91 320.68 329.65
    15.6800 18.24 332.64 330.10
    15.6900 17.91 320.72 330.56
    15.7000 18.12 328.25 331.02
    15.7100 17.82 317.53 331.50
    15.7200 18.34 336.26 331.98
    15.7300 18.51 342.62 332.49
    15.7400 18.00 323.94 333.01
    15.7500 18.00 323.94 333.56
    15.7600 18.42 339.48 334.15
    15.7700 18.27 333.95 334.84
    15.7800 18.75 351.47 335.80
    15.7900 18.37 337.55 337.63
    15.8000 18.60 345.91 342.94
    15.8100 19.95 398.03 348.80
    15.8200 20.39 415.94 356.49
    15.8300 20.16 406.42 371.37
    15.8400 20.56 422.76 414.93
    15.8500 24.35 592.74 512.17
    15.8600 25.82 666.83 641.26
    15.8700 25.97 674.41 711.20
    15.8800 24.01 576.52 653.68
    15.8900 22.23 494.13 525.42
    15.9000 19.99 399.77 420.95
    15.9100 18.85 355.18 372.05
    15.9200 18.46 340.84 363.35
    15.9300 19.47 379.09 388.76
    15.9400 21.01 441.58 474.67
    15.9500 25.97 674.57 646.06
    15.9600 30.20 912.28 845.73
    15.9700 30.37 922.30 923.40
    15.9800 27.41 751.48 803.49
    15.9900 24.15 583.01 601.88
    16.0000 21.08 444.45 454.29
    16.0100 19.63 385.52 390.03
    16.0200 19.04 362.44 373.81
    16.0300 19.54 381.94 374.78
    16.0400 19.19 368.42 383.00
    16.0500 19.42 377.19 407.96
    16.0600 21.82 475.99 512.13
    16.0700 28.05 786.68 905.74
    16.0800 44.01 1937.17 1962.75
    16.0900 62.94 3961.60 3785.06
    16.1000 76.75 5890.81 5502.44
    16.1100 71.50 5112.41 5661.08
    16.1200 63.49 4030.86 4100.69
    16.1300 46.93 2202.20 2208.49
    16.1400 30.25 915.04 1020.14
    16.1500 23.88 570.08 548.66
    16.1600 20.36 414.72 418.45
    16.1700 19.75 390.02 387.64
    16.1800 19.14 366.16 377.48
    16.1900 18.92 357.79 371.96
    16.2000 19.35 374.51 368.22
    16.2100 18.62 346.62 365.57
    16.2200 19.23 369.74 363.66
    16.2300 18.79 353.03 362.26
    16.2400 18.84 355.01 361.23
    16.2500 19.07 363.78 360.49
    16.2600 19.04 362.61 359.95
    16.2700 19.08 364.20 359.58
    16.2800 18.32 335.52 359.17
    16.2900 18.86 355.83 359.03
    16.3000 18.68 349.08 358.98
    16.3100 18.23 332.35 358.99
    16.3200 19.54 381.76 359.05
    16.3300 19.29 372.21 359.16
    16.3400 19.58 383.39 359.30
    16.3500 19.69 387.73 359.48
    16.3600 18.27 333.96 359.68
    16.3700 18.99 360.68 359.90
    16.3800 19.37 375.04 360.15
    16.3900 18.51 342.77 360.41
    16.4000 19.69 387.81 360.68
    16.4100 19.13 365.88 360.97
    16.4200 18.25 333.22 359.67
    16.4300 19.37 375.04 360.07
    16.4400 18.05 325.65 360.47
    16.4500 19.19 368.30 360.88
    16.4600 19.41 376.64 361.28
    16.4700 18.63 347.14 361.68
    16.4800 19.25 370.65 362.06
    16.4900 18.36 337.20 362.43
    16.5000 19.34 373.85 362.81
    16.5100 19.53 381.45 363.19
    16.5200 18.70 349.55 363.56
    16.5300 18.69 349.14 363.94
    16.5400 19.79 391.84 364.32
    16.5500 19.60 384.29 364.69
    16.5600 18.63 347.22 365.07
    16.5700 18.85 355.18 365.47
    16.5800 19.21 369.16 365.85
    16.5900 19.22 369.57 366.22
    16.6000 19.03 362.00 366.60
    16.6100 19.63 385.52 366.98
    16.6200 19.28 371.56 367.36
    16.6300 19.28 371.58 367.74
    16.6400 18.97 360.04 368.14
    16.6500 19.36 374.78 368.73
    16.6600 19.60 384.35 369.34
    16.6700 19.22 369.22 370.33
    16.6800 19.31 372.82 371.77
    16.6900 19.51 380.79 373.19
    16.7000 18.95 359.25 373.74
    16.7100 19.84 393.51 373.26
    16.7200 19.00 360.85 372.55
    16.7300 19.64 385.61 372.25
    16.7400 19.61 384.41 372.37
    16.7500 19.61 384.43 372.72
    16.7600 19.24 370.07 373.14
    16.7700 19.18 367.69 373.58
    16.7800 19.61 384.43 374.05
    16.7900 19.39 376.07 374.54
    16.8000 18.91 357.74 375.08
    16.8100 19.78 391.23 375.73
    16.8200 18.77 352.15 376.87
    16.8300 19.24 370.09 380.08
    16.8400 20.22 408.79 389.39
    16.8500 20.16 406.41 409.23
    16.8600 20.28 411.21 435.68
    16.8700 21.10 445.10 451.50
    16.8800 21.21 449.89 442.42
    16.8900 19.76 390.47 418.78
    16.9000 19.99 399.66 401.82
    16.9100 20.13 405.24 408.43
    16.9200 20.81 433.19 460.81
    16.9300 25.46 648.22 583.85
    16.9400 28.76 827.30 753.09
    16.9500 30.37 922.24 858.67
    16.9600 29.94 896.69 803.08
    16.9700 25.77 664.12 642.10
    16.9800 23.68 560.85 497.57
    16.9900 21.30 453.56 421.02
    17.0000 20.42 416.87 393.98
    17.0100 19.96 398.51 386.97
    17.0200 19.29 372.19 385.38
    17.0300 19.49 379.80 384.96
    17.0400 19.78 391.37 384.85
    17.0500 18.65 347.88 384.87
    17.0600 18.79 353.08 384.98
    17.0700 18.81 353.87 385.15
    17.0800 19.57 382.99 385.37
    17.0900 19.60 384.20 385.62
    17.1000 19.34 373.85 385.90
    17.1100 19.44 377.83 386.20
    17.1200 19.36 374.63 386.51
    17.1300 19.01 361.48 386.85
    17.1400 19.83 393.41 387.20
    17.1500 19.89 395.43 387.58
    17.1600 19.32 373.45 388.04
    17.1700 19.81 392.62 388.90
    17.1800 19.26 371.08 391.24
    17.1900 19.63 385.47 397.41
    17.2000 19.11 365.12 408.68
    17.2100 19.80 391.89 420.87
    17.2200 20.07 402.61 424.64
    17.2300 19.72 389.04 416.57
    17.2400 20.05 401.88 404.51
    17.2500 19.77 390.68 396.19
    17.2600 19.93 397.09 392.39
    17.2700 19.77 390.69 391.10
    17.2800 19.76 390.30 390.79
    17.2900 19.45 378.34 390.67
    17.3000 19.95 397.88 390.59
    17.3100 19.83 393.13 390.56
    17.3200 19.59 383.95 390.51
    17.3300 19.90 395.91 390.46
    17.3400 19.72 388.71 390.42
    17.3500 19.21 369.20 390.38
    17.3600 19.63 385.16 390.34
    17.3700 19.45 378.41 390.30
    17.3800 19.77 390.75 390.27
    17.3900 19.85 393.95 390.23
    17.4000 19.84 393.56 390.20
    17.4100 19.77 390.76 390.17
    17.4200 19.85 393.98 390.14
    17.4300 20.92 437.51 390.11
    17.4400 20.75 430.75 390.08
    17.4500 19.92 396.81 390.05
    17.4600 20.03 401.24 390.03
    17.4700 19.88 395.21 390.67
    17.4800 19.83 393.25 390.70
    17.4900 19.91 396.45 390.73
    17.5000 19.09 364.51 390.78
    17.5100 19.68 387.26 390.85
    17.5200 19.97 398.83 390.94
    17.5300 19.75 390.05 391.04
    17.5400 19.65 386.06 391.19
    17.5500 19.78 391.25 391.42
    17.5600 19.80 392.07 391.90
    17.5700 20.29 411.64 393.54
    17.5800 20.24 409.65 399.57
    17.5900 20.70 428.46 418.99
    17.6000 21.43 459.19 449.60
    17.6100 22.47 504.75 481.58
    17.6200 22.19 492.36 489.58
    17.6300 22.04 485.57 466.10
    17.6400 21.33 454.84 433.33
    17.6500 20.47 418.91 411.51
    17.6600 20.03 401.34 402.92
    17.6700 19.60 384.18 401.44
    17.6800 19.83 393.38 402.49
    17.6900 20.14 405.74 404.58
    17.7000 19.97 398.94 407.81
    17.7100 19.78 391.37 414.36
    17.7200 21.57 465.25 436.62
    17.7300 22.77 518.40 523.03
    17.7400 26.75 715.65 784.38
    17.7500 36.22 1311.54 1315.71
    17.7600 47.06 2214.24 1961.89
    17.7700 47.65 2270.93 2255.71
    17.7800 46.64 2175.05 1911.72
    17.7900 39.39 1551.40 1264.94
    17.8000 31.74 1007.43 765.24
    17.8100 24.48 599.17 534.58
    17.8200 21.82 476.11 468.97
    17.8300 21.88 478.53 468.09
    17.8400 22.51 506.90 517.44
    17.8500 24.34 592.36 737.22
    17.8600 33.89 1148.48 1497.96
    17.8700 55.33 3061.74 3311.41
    17.8800 79.44 6310.76 6025.32
    17.8900 90.64 8215.42 8043.89
    17.9000 88.61 7852.33 7526.41
    17.9100 73.58 5414.25 4995.50
    17.9200 51.56 2658.86 2518.19
    17.9300 36.43 1326.90 1172.56
    17.9400 27.88 777.05 746.83
    17.9500 26.39 696.33 703.22
    17.9600 26.96 727.11 704.27
    17.9700 23.83 567.73 636.90
    17.9800 22.91 524.64 537.35
    17.9900 22.02 484.67 463.83
    18.0000 20.39 415.95 429.97
    18.0100 20.20 407.97 423.86
    18.0200 20.86 435.16 446.55
    18.0300 21.86 477.92 526.06
    18.0400 26.19 685.73 685.97
    18.0500 30.64 939.04 872.34
    18.0600 31.83 1013.02 943.85
    18.0700 31.58 997.02 828.32
    18.0800 27.58 760.47 633.96
    18.0900 23.27 541.50 489.74
    18.1000 20.64 425.99 423.60
    18.1100 20.16 406.43 402.64
    18.1200 19.82 392.85 397.07
    18.1300 20.00 400.06 395.09
    18.1400 19.49 379.69 393.90
    18.1500 19.87 394.84 393.01
    18.1600 19.47 379.27 392.29
    18.1700 19.12 365.71 391.69
    18.1800 20.11 404.47 391.19
    18.1900 19.38 375.68 390.76
    18.2000 19.22 369.33 390.38
    18.2100 19.73 389.35 387.54
    18.2200 19.60 384.11 387.40
    18.2300 19.69 387.71 387.27
    18.2400 19.50 380.14 387.15
    18.2500 19.41 376.94 387.04
    18.2600 19.37 375.35 386.95
    18.2700 19.55 382.14 386.77
    18.2800 19.38 375.74 386.70
    18.2900 19.40 376.17 386.66
    18.3000 19.42 376.98 386.60
    18.3100 18.90 357.39 386.55
    18.3200 19.55 382.21 386.23
    18.3300 19.33 373.83 386.08
    18.3400 19.20 368.60 385.79
    18.3500 19.76 390.61 385.55
    18.3600 19.00 361.03 385.40
    18.3700 20.24 409.82 385.50
    18.3800 19.54 381.82 387.71
    18.3900 19.70 388.22 395.64
    18.4000 20.99 440.63 413.68
    18.4100 21.40 457.84 438.64
    18.4200 21.30 453.80 454.19
    18.4300 21.14 447.02 445.38
    18.4400 20.99 440.64 420.65
    18.4500 20.50 420.29 398.67
    18.4600 19.57 383.10 387.12
    18.4700 19.18 367.90 382.96
    18.4800 20.44 417.90 381.70
    18.4900 19.09 364.33 381.19
    18.5000 19.32 373.11 380.87
    18.5100 19.63 385.52 380.62
    18.5200 18.94 358.76 380.53
    18.5300 19.15 366.74 380.45
    18.5400 19.33 373.54 380.58
    18.5500 19.60 383.97 381.41
    18.5600 19.29 372.00 384.90
    18.5700 19.85 393.97 395.46
    18.5800 20.24 409.59 417.39
    18.5900 19.99 399.58 448.00
    18.6000 20.60 424.40 481.60
    18.6100 21.85 477.22 534.70
    18.6200 24.30 590.44 641.88
    18.6300 27.96 781.65 778.65
    18.6400 28.82 830.44 833.89
    18.6500 27.19 739.26 739.60
    18.6600 23.21 538.50 578.71
    18.6700 21.70 470.85 457.10
    18.6800 20.45 418.07 400.53
    18.6900 19.41 376.88 382.45
    18.7000 19.42 377.28 377.73
    18.7100 19.85 394.08 376.24
    18.7200 19.25 370.50 375.80
    18.7300 19.23 369.68 376.97
    18.7400 19.54 381.71 384.32
    18.7500 20.29 411.68 394.33
    18.7600 20.19 407.70 404.99
    18.7700 21.70 470.90 408.84
    18.7800 20.30 412.10 404.85
    18.7900 19.92 396.91 407.36
    18.8000 20.15 406.11 438.32
    18.8100 23.61 557.35 507.66
    18.8200 27.45 753.43 585.99
    18.8300 27.51 756.61 610.40
    18.8400 26.90 723.45 556.09
    18.8500 23.82 567.41 476.59
    18.8600 21.38 456.95 429.11
    18.8700 21.19 448.97 430.88
    18.8800 21.77 473.80 467.39
    18.8900 23.28 541.83 503.78
    18.9000 22.55 508.62 502.90
    18.9100 22.04 485.81 465.20
    18.9200 20.88 435.80 423.90
    18.9300 19.57 382.98 400.40
    18.9400 20.22 408.99 393.56
    18.9500 19.25 370.57 394.94
    18.9600 19.97 398.99 400.16
    18.9700 19.48 379.38 408.20
    18.9800 20.20 407.85 420.67
    18.9900 19.67 387.06 446.56
    19.0000 22.23 494.32 535.25
    19.0100 25.49 649.59 882.94
    19.0200 39.30 1544.70 1958.74
    19.0300 65.94 4347.90 4228.89
    19.0400 87.28 7618.20 7176.37
    19.0500 100.00 10000.00 8835.67
    19.0600 87.88 7723.11 7668.29
    19.0700 73.60 5416.60 4806.62
    19.0800 46.85 2194.76 2335.54
    19.0900 33.58 1127.72 1076.78
    19.1000 26.40 696.96 726.80
    19.1100 29.15 849.51 842.62
    19.1200 34.16 1166.63 1147.95
    19.1300 37.14 1379.22 1364.38
    19.1400 35.53 1262.40 1263.33
    19.1500 30.46 928.06 933.37
    19.1600 26.06 679.06 627.10
    19.1700 21.71 471.28 460.49
    19.1800 20.51 420.78 399.28
    19.1900 20.35 414.00 381.19
    19.2000 19.56 382.78 374.81
    19.2100 19.71 388.41 371.09
    19.2200 19.81 392.41 368.32
    19.2300 19.82 392.80 366.08
    19.2400 19.12 365.59 364.20
    19.2500 19.07 363.61 362.61
    19.2600 19.23 369.62 361.22
    19.2700 19.02 361.61 360.11
    19.2800 19.25 370.42 359.04
    19.2900 19.11 365.21 358.08
    19.3000 18.75 351.60 357.23
    19.3100 18.93 358.43 356.58
    19.3200 19.48 379.28 356.55
    19.3300 18.73 350.83 358.45
    19.3400 18.08 326.82 364.34
    19.3500 19.52 380.90 374.23
    19.3600 19.50 380.09 382.61
    19.3700 19.67 386.92 378.70
    19.3800 19.31 372.89 368.91
    19.3900 19.01 361.31 358.16
    19.4000 19.07 363.71 351.56
    19.4100 18.72 350.52 348.78
    19.4200 17.78 316.04 347.76
    19.4300 18.46 340.87 347.40
    19.4400 18.20 331.25 347.03
    19.4500 19.49 379.72 346.38
    19.4600 17.70 313.24 346.12
    19.4700 17.99 323.67 345.90
    19.4800 18.53 343.29 345.74
    19.4900 18.62 346.52 345.67
    19.5000 17.82 317.67 345.73
    19.5100 18.47 341.31 346.17
    19.5200 18.48 341.33 348.38
    19.5300 19.17 367.39 358.05
    19.5400 19.64 385.82 390.14
    19.5500 22.47 504.83 462.56
    19.5600 24.61 605.81 563.16
    19.5700 26.61 707.98 628.39
    19.5800 25.07 628.30 596.87
    19.5900 22.94 526.12 499.81
    19.6000 20.75 430.76 411.82
    19.6100 19.99 399.50 365.10
    19.6200 19.41 376.67 348.58
    19.6300 18.16 329.80 344.16
    19.6400 18.51 342.64 342.96
    19.6500 18.27 333.80 342.54
    19.6600 17.88 319.80 342.78
    19.6700 18.49 341.82 343.33
    19.6800 18.82 354.29 346.12
    19.6900 18.32 335.46 358.45
    19.7000 19.12 365.50 399.52
    19.7100 21.52 462.92 492.59
    19.7200 24.19 585.18 624.05
    19.7300 26.28 690.60 711.82
    19.7400 25.58 654.11 674.08
    19.7500 23.00 529.09 548.48
    19.7600 21.01 441.32 432.92
    19.7700 19.24 370.36 371.18
    19.7800 18.61 346.32 349.78
    19.7900 17.99 323.50 345.35
    19.8000 18.48 341.54 348.39
    19.8100 19.06 363.18 366.35
    19.8200 20.30 412.09 428.64
    19.8300 22.56 509.13 575.78
    19.8400 27.09 733.64 795.16
    19.8500 29.89 893.16 961.89
    19.8600 30.13 907.61 936.44
    19.8700 28.35 803.83 773.89
    19.8800 25.45 647.88 641.11
    19.8900 24.22 586.56 589.94
    19.9000 23.20 538.45 551.91
    19.9100 21.21 449.88 486.16
    19.9200 20.01 400.55 433.50
    19.9300 20.51 420.59 455.93
    19.9400 24.71 610.63 602.21
    19.9500 30.49 929.38 856.06
    19.9600 35.15 1235.80 1070.18
    19.9700 33.54 1125.21 1051.74
    19.9800 31.03 963.12 818.82
    19.9900 25.03 626.74 571.65
    20.0000 20.97 439.90 437.29
    20.0100 21.09 444.71 410.70
    20.0200 20.33 413.45 431.55
    20.0300 20.82 433.51 442.44
    20.0400 20.19 407.83 418.68
    20.0500 19.65 386.17 378.94
    20.0600 18.95 358.94 348.78
    20.0700 18.31 335.27 334.30
    20.0800 17.98 323.25 329.25
    20.0900 17.89 320.05 327.57
    20.1000 17.78 316.05 326.77
    20.1100 17.77 315.63 326.23
    20.1200 17.99 323.65 325.86
    20.1300 17.41 303.20 325.63
    20.1400 17.86 318.88 325.59
    20.1500 17.62 310.44 325.79
    20.1600 18.10 327.72 326.45
    20.1700 17.81 317.28 328.65
    20.1800 18.04 325.33 339.14
    20.1900 20.29 411.57 378.44
    20.2000 22.53 507.45 483.78
    20.2100 27.11 734.94 667.78
    20.2200 32.08 1028.93 848.93
    20.2300 31.26 977.23 878.11
    20.2400 27.59 761.02 725.54
    20.2500 24.28 589.71 528.12
    20.2600 21.04 442.53 397.61
    20.2700 18.96 359.47 342.52
    20.2800 18.22 331.81 325.67
    20.2900 17.77 315.76 321.17
    20.3000 17.35 300.91 319.39
    20.3100 17.52 306.92 318.23
    20.3200 17.67 312.15 317.31
    20.3300 17.75 314.98 316.54
    20.3400 17.30 299.33 315.88
    20.3500 18.07 326.61 315.24
    20.3600 17.59 309.35 314.75
    20.3700 18.02 324.61 314.25
    20.3800 17.71 313.80 313.78
    20.3900 17.86 319.01 313.33
    20.4000 17.03 290.14 312.89
    20.4100 17.66 311.77 312.47
    20.4200 17.81 317.03 312.06
    20.4300 17.40 302.59 311.66
    20.4400 17.97 323.06 311.27
    20.4500 17.85 318.64 310.89
    20.4600 17.66 311.83 310.51
    20.4700 17.49 305.82 310.13
    20.4800 17.51 306.61 309.77
    20.4900 17.49 305.82 309.41
    20.5000 17.53 307.44 309.14
    20.5100 17.48 305.45 308.80
    20.5200 17.41 303.02 308.46
    20.5300 17.90 320.28 308.13
    20.5400 17.57 308.64 307.60
    20.5500 17.48 305.45 307.31
    20.5600 17.30 299.44 307.04
    20.5700 17.45 304.65 306.79
    20.5800 17.25 297.45 306.58
    20.5900 16.77 281.40 306.41
    20.6000 17.31 299.47 306.35
    20.6100 17.07 291.46 306.66
    20.6200 17.80 316.73 308.69
    20.6300 17.72 313.92 317.09
    20.6400 18.04 325.57 340.92
    20.6500 19.50 380.19 384.95
    20.6600 20.16 406.31 431.94
    20.6700 20.98 440.00 444.78
    20.6800 20.78 432.00 410.35
    20.6900 19.49 379.82 360.26
    20.7000 17.64 311.15 324.99
    20.7100 17.26 297.90 309.31
    20.7200 17.98 323.21 304.38
    20.7300 16.98 288.27 303.06
    20.7400 16.84 283.47 302.70
    20.7500 17.43 303.95 302.96
    20.7600 17.53 307.16 305.33
    20.7700 18.06 326.05 315.76
    20.7800 18.46 340.92 347.77
    20.7900 19.64 385.90 411.91
    20.8000 21.34 455.38 489.45
    20.8100 22.69 514.82 524.34
    20.8200 20.60 424.46 482.08
    20.8300 20.05 401.96 403.03
    20.8400 18.23 332.50 341.05
    20.8500 17.86 318.85 311.16
    20.8600 17.00 289.12 301.14
    20.8700 17.03 289.94 298.28
    20.8800 17.04 290.36 297.18
    20.8900 17.37 301.58 296.48
    20.9000 17.05 290.75 295.90
    20.9100 17.22 296.38 295.40
    20.9200 17.19 295.60 294.96
    20.9300 16.56 274.31 294.56
    20.9400 17.41 303.21 294.20
    20.9500 16.77 281.12 293.87
    20.9600 17.17 294.79 293.67
    20.9700 17.04 290.38 293.50
    20.9800 16.95 287.18 293.37
    20.9900 16.91 285.98 293.32
    21.0000 17.01 289.20 293.37
    21.0100 17.04 290.40 293.54
    21.0200 16.29 265.52 293.93
    21.0300 16.68 278.36 294.93
    21.0400 16.92 286.39 298.65
    21.0500 17.81 317.34 313.82
    21.0600 19.32 373.17 362.78
    21.0700 22.08 487.66 471.36
    21.0800 25.62 656.35 621.33
    21.0900 25.73 661.97 717.92
    21.1000 25.82 666.48 670.42
    21.1100 23.92 572.11 525.82
    21.1200 20.71 429.08 396.27
    21.1300 18.27 333.85 326.33
    21.1400 17.95 322.20 301.38
    21.1500 17.61 310.14 294.59
    21.1600 17.37 301.73 292.64
    21.1700 16.90 285.67 291.76
    21.1800 17.27 298.13 291.21
    21.1900 17.07 291.30 290.85
    21.2000 17.53 307.37 290.64
    21.2100 17.02 289.67 290.58
    21.2200 17.35 300.94 290.70
    21.2300 17.01 289.29 291.28
    21.2400 17.41 302.97 293.59
    21.2500 17.51 306.61 301.59
    21.2600 17.49 305.80 321.75
    21.2700 18.52 343.16 355.02
    21.2800 19.63 385.37 385.69
    21.2900 19.13 366.08 388.03
    21.3000 18.84 354.86 360.88
    21.3100 18.33 335.96 329.11
    21.3200 17.67 312.29 310.61
    21.3300 17.35 301.02 307.26
    21.3400 17.35 301.00 318.39
    21.3500 18.69 349.25 351.21
    21.3600 20.26 410.34 412.93
    21.3700 21.98 483.10 496.18
    21.3800 24.77 613.73 611.98
    21.3900 29.11 847.33 902.44
    21.4000 38.68 1496.42 1637.02
    21.4100 58.41 3412.17 2824.89
    21.4200 59.79 3574.59 3807.36
    21.4300 65.05 4231.56 3692.02
    21.4400 56.86 3232.86 2582.67
    21.4500 39.37 1549.61 1400.92
    21.4600 25.34 641.95 698.07
    21.4700 21.19 449.04 423.28
    21.4800 18.19 330.86 342.63
    21.4900 17.63 310.74 317.87
    21.5000 17.59 309.57 307.01
    21.5100 17.57 308.76 301.14
    21.5200 17.05 290.67 298.03
    21.5300 17.24 297.11 297.42
    21.5400 17.50 306.36 303.24
    21.5500 18.05 325.66 331.83
    21.5600 20.22 408.89 419.36
    21.5700 23.94 573.35 594.50
    21.5800 27.07 732.61 804.59
    21.5900 27.10 734.63 897.30
    21.6000 26.01 676.29 780.99
    21.6100 21.97 482.52 566.78
    21.6200 18.35 336.57 399.67
    21.6300 17.55 308.02 319.37
    21.6400 17.02 289.53 292.81
    21.6500 17.49 306.02 286.33
    21.6600 17.25 297.57 284.21
    21.6700 16.79 281.91 283.32
    21.6800 16.38 268.26 282.97
    21.6900 17.06 291.19 283.05
    21.7000 16.57 274.69 283.65
    21.7100 17.53 307.28 285.94
    21.7200 17.14 293.64 293.66
    21.7300 17.88 319.76 316.07
    21.7400 20.15 405.83 365.30
    21.7500 21.04 442.85 458.71
    21.7600 24.31 590.87 620.95
    21.7700 30.55 933.59 892.36
    21.7800 35.58 1265.93 1238.16
    21.7900 40.19 1614.97 1436.97
    21.8000 37.24 1386.95 1273.62
    21.8100 31.93 1019.33 882.65
    21.8200 24.36 593.35 543.34
    21.8300 20.07 402.69 366.25
    21.8400 17.68 312.57 304.64
    21.8500 16.94 286.82 288.15
    21.8600 16.96 287.64 283.89
    21.8700 17.20 295.69 282.58
    21.8800 16.41 269.16 282.54
    21.8900 16.72 279.62 283.74
    21.9000 17.42 303.35 287.67
    21.9100 19.10 364.90 302.61
    21.9200 19.75 390.23 362.63
    21.9300 24.24 587.36 547.01
    21.9400 30.25 914.96 934.18
    21.9500 36.63 1341.58 1434.88
    21.9600 38.47 1479.62 1712.45
    21.9700 34.73 1206.41 1500.65
    21.9800 29.36 861.98 1007.14
    21.9900 23.45 549.70 590.22
    22.0000 19.51 380.69 377.86
    22.0100 17.73 314.28 304.70
    22.0200 17.32 299.81 285.23
    22.0300 16.81 282.50 279.74
    22.0400 16.47 271.25 277.48
    22.0500 16.89 285.33 276.40
    22.0600 16.66 277.68 276.17
    22.0700 16.58 274.86 276.85
    22.0800 16.86 284.14 279.39
    22.0900 16.76 280.91 287.13
    22.1000 18.81 353.74 318.48
    22.1100 21.46 460.43 426.76
    22.1200 27.24 742.17 695.21
    22.1300 36.04 1298.82 1124.17
    22.1400 39.24 1540.02 1493.45
    22.1500 38.76 1502.22 1483.29
    22.1600 31.35 982.98 1103.97
    22.1700 29.33 860.17 679.39
    22.1800 22.32 498.33 420.02
    22.1900 19.18 367.91 319.97
    22.2000 18.03 325.25 304.11
    22.2100 18.50 342.15 339.30
    22.2200 21.01 441.61 430.58
    22.2300 24.99 624.38 564.13
    22.2400 25.36 643.29 666.37
    22.2500 25.22 636.10 655.35
    22.2600 23.09 533.03 557.17
    22.2700 21.63 467.82 476.92
    22.2800 21.47 461.00 455.81
    22.2900 21.19 448.92 447.22
    22.3000 20.58 423.57 403.55
    22.3100 19.14 366.38 342.80
    22.3200 17.90 320.50 298.82
    22.3300 17.03 289.89 281.40
    22.3400 16.84 283.46 289.65
    22.3500 18.12 328.16 343.49
    22.3600 21.46 460.64 492.23
    22.3700 27.91 779.15 756.01
    22.3800 34.71 1204.44 1024.18
    22.3900 33.06 1092.89 1081.21
    22.4000 29.45 867.01 869.44
    22.4100 23.97 574.65 581.19
    22.4200 18.72 350.37 384.47
    22.4300 17.81 317.33 299.28
    22.4400 17.20 295.99 274.68
    22.4500 16.71 279.08 274.81
    22.4600 16.81 282.72 297.50
    22.4700 19.05 362.85 364.05
    22.4800 22.57 509.46 482.76
    22.4900 24.86 617.81 605.12
    22.5000 24.90 620.25 636.01
    22.5100 23.77 565.10 548.26
    22.5200 20.38 415.25 430.76
    22.5300 19.18 367.71 369.56
    22.5400 18.69 349.20 372.16
    22.5500 19.17 367.32 387.93
    22.5600 19.68 387.46 370.22
    22.5700 18.01 324.23 325.36
    22.5800 17.23 296.85 284.64
    22.5900 16.02 256.58 262.36
    22.6000 16.12 259.82 253.91
    22.6100 14.62 213.89 251.12
    22.6200 15.93 253.77 250.00
    22.6300 15.22 231.62 249.26
    22.6400 16.16 261.05 248.66
    22.6500 15.42 237.67 248.13
    22.6600 15.78 248.97 247.66
    22.6700 15.29 233.67 247.23
    22.6800 15.50 240.10 246.82
    22.6900 15.56 242.14 246.44
    22.7000 15.10 228.04 246.07
    22.7100 15.75 248.19 245.39
    22.7200 15.59 242.94 245.07
    22.7300 15.59 242.96 244.76
    22.7400 15.33 234.90 244.45
    22.7500 15.59 242.95 244.15
    22.7600 16.00 255.85 243.85
    22.7700 15.96 254.66 243.64
    22.7800 15.64 244.59 243.43
    22.7900 14.68 215.59 243.21
    22.8000 15.84 251.05 243.01
    22.8100 15.46 238.96 242.74
    22.8200 15.13 228.88 242.44
    22.8300 15.65 245.00 242.25
    22.8400 15.24 232.12 242.44
    22.8500 15.45 238.57 242.27
    22.8600 15.93 253.92 242.11
    22.8700 16.07 258.35 241.90
    22.8800 16.42 269.63 241.74
    22.8900 16.33 266.81 241.59
    22.9000 16.84 283.73 241.45
    22.9100 15.52 241.02 241.31
    22.9200 15.68 245.86 241.18
    22.9300 15.26 232.98 241.06
    22.9400 15.04 226.12 240.94
    22.9500 14.92 222.49 240.84
    22.9600 15.26 232.99 240.75
    22.9700 15.28 233.40 240.68
    22.9800 15.01 225.33 240.62
    22.9900 15.63 244.30 240.60
    23.0000 15.38 236.65 240.60
    23.0100 15.76 248.33 240.64
    23.0200 15.34 235.43 240.74
    23.0300 15.24 232.20 240.91
    23.0400 15.21 231.40 241.34
    23.0500 15.46 239.08 241.75
    23.0600 15.42 237.86 242.36
    23.0700 15.63 244.32 243.25
    23.0800 15.51 240.70 244.65
    23.0900 15.98 255.21 247.49
    23.1000 16.28 264.89 256.65
    23.1100 17.23 296.75 291.35
    23.1200 19.73 389.09 398.07
    23.1300 26.50 702.39 625.36
    23.1400 29.30 858.46 927.36
    23.1500 31.43 987.89 1107.92
    23.1600 30.27 916.15 995.90
    23.1700 26.04 678.32 701.84
    23.1800 21.13 446.44 444.13
    23.1900 18.41 338.76 308.70
    23.2000 16.31 266.17 260.69
    23.2100 15.31 234.31 247.45
    23.2200 15.32 234.72 243.55
    23.2300 15.75 248.02 241.76
    23.2400 15.36 235.93 240.64
    23.2500 15.67 245.60 240.07
    23.2600 14.99 224.64 239.67
    23.2700 15.57 242.39 239.56
    23.2800 14.93 223.03 239.87
    23.2900 14.85 220.59 241.34
    23.3000 15.50 240.39 247.68
    23.3100 15.90 252.89 271.33
    23.3200 17.88 319.86 335.55
    23.3300 21.39 457.39 451.38
    23.3400 24.43 596.59 573.22
    23.3500 24.08 580.06 605.39
    23.3600 22.41 502.16 515.56
    23.3700 20.76 431.17 386.30
    23.3800 17.10 292.46 295.33
    23.3900 16.42 269.46 255.09
    23.4000 16.13 260.18 244.12
    23.4100 15.47 239.22 245.98
    23.4200 15.80 249.71 254.82
    23.4300 16.01 256.17 265.59
    23.4400 16.23 263.44 269.78
    23.4500 16.71 279.16 263.99
    23.4600 16.62 276.36 258.05
    23.4700 17.10 292.49 269.01
    23.4800 19.74 389.73 316.39
    23.4900 21.86 477.69 402.36
    23.5000 24.59 604.78 486.25
    23.5100 24.81 615.30 500.21
    23.5200 23.51 552.77 438.52
    23.5300 20.60 424.49 381.94
    23.5400 19.88 395.40 402.22
    23.5500 21.55 464.40 495.39
    23.5600 23.64 558.85 576.33
    23.5700 22.49 506.00 552.46
    23.5800 20.45 418.02 441.07
    23.5900 17.66 311.92 330.10
    23.6000 16.47 271.15 266.26
    23.6100 15.91 253.02 241.68
    23.6200 15.93 253.81 234.46
    23.6300 15.03 226.00 232.61
    23.6400 15.55 241.74 231.60
    23.6500 14.82 219.54 230.91
    23.6600 15.26 232.86 230.41
    23.6700 15.19 230.85 229.87
    23.6800 15.17 230.03 229.61
    23.6900 15.22 231.64 229.43
    23.7000 14.56 211.88 229.33
    23.7100 14.76 217.96 229.33
    23.7200 14.78 218.36 229.44
    23.7300 14.91 222.41 229.68
    23.7400 15.03 226.03 230.14
    23.7500 14.78 218.38 231.01
    23.7600 15.26 232.91 233.31
    23.7700 16.20 262.38 241.87
    23.7800 16.75 280.56 271.70
    23.7900 18.28 334.26 348.48
    23.8000 20.85 434.78 480.13
    23.8100 25.35 642.72 610.89
    23.8200 25.25 637.46 638.74
    23.8300 24.58 603.98 540.05
    23.8400 21.12 446.12 402.36
    23.8500 19.31 373.06 303.07
    23.8600 16.93 286.67 256.02
    23.8700 15.60 243.48 240.42
    23.8800 15.29 233.79 239.24
    23.8900 15.81 249.93 246.76
    23.9000 16.85 283.85 280.12
    23.9100 19.60 384.00 382.66
    23.9200 26.45 699.80 597.91
    23.9300 32.16 1034.15 879.65
    23.9400 35.24 1241.69 1043.63
    23.9500 32.49 1055.54 935.17
    23.9600 26.48 701.42 660.51
    23.9700 20.88 436.14 420.56
    23.9800 17.00 289.15 294.15
    23.9900 16.35 267.33 249.12
    24.0000 16.10 259.27 237.21
    24.0100 15.41 237.48 234.22
    24.0200 15.29 233.83 232.82
    24.0300 15.31 234.27 231.35
    24.0400 15.63 244.37 230.21
    24.0500 15.04 226.19 229.64
    24.0600 15.23 231.84 229.65
    24.0700 15.05 226.59 230.11
    24.0800 15.08 227.40 230.98
    24.0900 15.23 231.86 232.31
    24.1000 15.54 241.55 234.25
    24.1100 14.56 212.06 237.03
    24.1200 15.56 241.96 241.17
    24.1300 15.75 248.03 248.42
    24.1400 16.61 275.90 267.68
    24.1500 18.19 330.83 339.30
    24.1600 23.99 575.65 578.27
    24.1700 35.18 1237.32 1155.35
    24.1800 47.90 2294.03 2063.80
    24.1900 54.05 2921.65 2836.44
    24.2000 54.98 3022.91 2804.12
    24.2100 42.79 1831.30 1999.37
    24.2200 32.05 1027.38 1103.78
    24.2300 23.28 542.19 552.91
    24.2400 17.89 320.01 330.59
    24.2500 16.07 258.17 265.11
    24.2600 15.69 246.08 247.15
    24.2700 16.04 257.39 241.48
    24.2800 15.79 249.31 243.16
    24.2900 16.69 278.43 259.61
    24.3000 16.91 286.09 307.82
    24.3100 19.56 382.68 394.14
    24.3200 21.71 471.20 485.80
    24.3300 21.60 466.76 517.99
    24.3400 21.06 443.73 469.13
    24.3500 19.32 373.39 383.42
    24.3600 18.27 333.80 306.46
    24.3700 17.08 291.78 258.25
    24.3800 15.78 248.96 234.96
    24.3900 15.03 225.94 226.04
    24.4000 15.30 234.02 223.09
    24.4100 14.76 217.85 222.03
    24.4200 15.47 239.27 221.57
    24.4300 14.76 217.87 221.42
    24.4400 14.76 217.85 221.57
    24.4500 14.69 215.85 222.24
    24.4600 14.77 218.26 224.62
    24.4700 15.68 245.77 232.64
    24.4800 16.72 279.72 252.57
    24.4900 16.75 280.52 287.46
    24.5000 17.72 314.07 325.22
    24.5100 18.08 327.04 344.42
    24.5200 18.45 340.37 357.68
    24.5300 20.03 401.01 410.95
    24.5400 22.99 528.37 523.83
    24.5500 25.77 664.25 649.27
    24.5600 28.39 805.75 740.84
    24.5700 29.46 868.02 856.61
    24.5800 32.73 1071.01 1058.80
    24.5900 35.15 1235.24 1233.62
    24.6000 34.64 1200.09 1192.65
    24.6100 33.00 1088.84 963.24
    24.6200 28.79 828.86 719.28
    24.6300 26.17 684.97 558.78
    24.6400 22.79 519.20 462.71
    24.6500 21.51 462.62 424.23
    24.6600 22.97 527.76 479.49
    24.6700 26.63 709.35 616.06
    24.6800 28.09 788.99 720.55
    24.6900 25.73 662.02 671.87
    24.7000 22.99 528.58 507.82
    24.7100 17.43 303.72 352.99
    24.7200 15.95 254.37 267.27
    24.7300 15.26 232.94 237.70
    24.7400 15.33 234.97 240.10
    24.7500 16.39 268.58 277.67
    24.7600 19.16 367.26 374.68
    24.7700 23.14 535.53 530.02
    24.7800 26.01 676.75 664.47
    24.7900 26.61 708.27 661.83
    24.8000 23.93 572.79 523.91
    24.8100 18.54 343.86 367.61
    24.8200 15.62 243.94 269.93
    24.8300 15.40 237.05 229.66
    24.8400 14.83 220.05 217.37
    24.8500 14.57 212.37 213.77
    24.8600 14.04 197.02 212.18
    24.8700 14.48 209.56 211.02
    24.8800 14.57 212.40 210.19
    24.8900 14.39 207.13 209.58
    24.9000 13.98 195.40 209.10
    24.9100 14.07 197.83 208.35
    24.9200 14.60 213.21 208.08
    24.9300 13.76 189.35 207.78
    24.9400 14.84 220.10 207.68
    24.9500 14.57 212.41 207.60
    24.9600 14.24 202.71 207.71
    24.9700 14.50 210.39 208.00
    24.9800 14.41 207.57 208.73
    24.9900 15.25 232.67 211.23
    25.0000 16.15 260.98 220.50
    25.0100 15.98 255.33 249.45
    25.0200 17.41 303.09 311.99
    25.0300 20.03 401.40 399.56
    25.0400 19.93 397.39 463.49
    25.0500 19.69 387.65 454.02
    25.0600 18.46 340.73 387.45
    25.0700 16.45 270.75 314.02
    25.0800 15.85 251.31 262.52
    25.0900 15.33 235.13 233.00
    25.1000 15.35 235.54 217.85
    25.1100 15.08 227.45 211.92
    25.1200 14.56 212.07 214.35
    25.1300 15.43 237.97 228.02
    25.1400 15.88 252.12 254.74
    25.1500 17.00 288.96 284.26
    25.1600 16.45 270.73 293.78
    25.1700 16.31 265.91 273.55
    25.1800 15.16 229.89 242.35
    25.1900 14.97 224.23 219.96
    25.2000 14.55 211.70 211.32
    25.2100 14.91 222.22 212.55
    25.2200 14.45 208.86 218.49
    25.2300 14.76 217.77 223.21
    25.2400 14.77 218.17 221.65
    25.2500 14.33 205.22 215.28
    25.2600 14.45 208.86 209.67
    25.2700 14.34 205.63 209.49
    25.2800 14.54 211.30 219.85
    25.2900 15.31 234.39 247.31
    25.3000 16.80 282.16 289.83
    25.3100 18.14 329.14 324.30
    25.3200 17.34 300.80 320.21
    25.3300 16.21 262.77 281.55
    25.3400 15.31 234.40 240.28
    25.3500 15.10 227.94 215.44
    25.3600 14.70 216.20 205.50
    25.3700 14.13 199.61 203.04
    25.3800 14.43 208.11 204.22
    25.3900 13.44 180.58 210.74
    25.4000 15.39 236.87 227.01
    25.4100 15.61 243.77 253.34
    25.4200 17.45 304.52 278.30
    25.4300 16.51 272.52 284.40
    25.4400 16.45 270.50 269.19
    25.4500 15.02 225.56 244.44
    25.4600 14.58 212.61 222.40
    25.4700 14.30 204.51 208.69
    25.4800 13.91 193.57 202.26
    25.4900 14.01 196.42 199.95
    25.5000 13.80 190.34 199.26
    25.5100 13.42 180.21 199.28
    25.5200 13.94 194.40 200.51
    25.5300 14.14 200.07 205.25
    25.5400 14.09 198.44 217.01
    25.5500 15.34 235.31 235.70
    25.5600 15.81 249.91 251.83
    25.5700 15.09 227.63 251.40
    25.5800 15.23 232.09 234.82
    25.5900 15.07 227.23 215.96
    25.6000 14.46 209.00 204.21
    25.6100 13.87 192.39 199.35
    25.6200 13.84 191.58 197.86
    25.6300 14.94 223.19 197.46
    25.6400 13.86 191.99 197.29
    25.6500 14.17 200.91 197.29
    25.6600 13.90 193.20 197.41
    25.6700 14.27 203.74 197.68
    25.6800 13.59 184.71 198.23
    25.6900 14.49 209.85 199.72
    25.7000 14.53 211.07 204.64
    25.7100 15.01 225.23 220.04
    25.7200 16.80 282.37 259.05
    25.7300 18.36 337.08 332.07
    25.7400 19.65 386.11 423.16
    25.7500 19.98 399.07 479.23
    25.7600 18.87 356.12 449.96
    25.7700 16.77 281.17 358.94
    25.7800 16.89 285.24 272.73
    25.7900 15.80 249.59 223.75
    25.8000 14.71 216.36 204.95
    25.8100 14.39 207.04 199.81
    25.8200 13.67 186.79 198.54
    25.8300 14.18 200.97 198.49
    25.8400 14.22 202.20 199.72
    25.8500 14.72 216.79 205.30
    25.8600 14.47 209.49 225.19
    25.8700 16.18 261.77 276.93
    25.8800 18.96 359.43 368.73
    25.8900 20.42 416.96 468.92
    25.9000 21.44 459.51 508.03
    25.9100 20.68 427.53 455.60
    25.9200 17.55 307.98 356.35
    25.9300 16.35 267.47 270.89
    25.9400 14.53 211.14 223.23
    25.9500 13.79 190.07 203.96
    25.9600 14.53 211.14 197.83
    25.9700 14.12 199.39 195.93
    25.9800 14.28 203.86 195.13
    25.9900 13.80 190.50 194.69
    26.0000 13.73 188.46 194.43
    26.0100 14.14 199.82 194.32
    26.0200 14.02 196.58 194.35
    26.0300 13.57 184.02 194.71
    26.0400 14.02 196.59 195.08
    26.0500 14.01 196.19 195.71
    26.0600 13.98 195.38 196.79
    26.0700 14.12 199.44 199.37
    26.0800 14.44 208.37 208.66
    26.0900 14.46 209.18 239.68
    26.1000 17.76 315.41 317.41
    26.1100 22.35 499.47 447.73
    26.1200 24.56 603.19 572.91
    26.1300 24.62 606.08 592.37
    26.1400 22.79 519.33 492.05
    26.1500 18.17 330.04 374.04
    26.1600 16.97 287.88 326.94
    26.1700 19.42 377.08 377.47
    26.1800 23.45 549.79 507.49
    26.1900 26.37 695.37 650.62
    26.2000 25.02 626.03 694.95
    26.2100 25.53 652.00 602.79
    26.2200 22.99 528.74 491.63
    26.2300 20.64 426.16 473.85
    26.2400 21.87 478.47 532.60
    26.2500 21.51 462.66 553.71
    26.2600 19.40 376.29 472.69
    26.2700 18.01 324.41 350.42
    26.2800 16.35 267.23 260.62
    26.2900 15.77 248.59 221.57
    26.3000 15.56 242.10 221.88
    26.3100 16.54 273.73 261.61
    26.3200 19.98 399.05 350.14
    26.3300 22.10 488.26 464.56
    26.3400 22.17 491.52 528.01
    26.3500 21.39 457.45 479.05
    26.3600 17.88 319.58 364.99
    26.3700 15.65 244.96 267.42
    26.3800 14.00 195.89 216.34
    26.3900 14.31 204.81 197.96
    26.4000 13.72 188.19 193.05
    26.4100 13.34 178.05 193.20
    26.4200 13.58 184.53 198.46
    26.4300 14.54 211.30 211.55
    26.4400 15.78 249.03 230.51
    26.4500 15.57 242.53 243.56
    26.4600 15.55 241.73 238.52
    26.4700 14.91 222.28 219.83
    26.4800 14.10 198.76 202.10
    26.4900 14.05 197.54 191.85
    26.5000 14.38 206.87 187.84
    26.5100 13.18 173.62 186.62
    26.5200 14.11 199.16 186.03
    26.5300 12.94 167.53 185.98
    26.5400 14.03 196.74 186.30
    26.5500 13.82 191.07 187.76
    26.5600 14.00 195.95 193.19
    26.5700 14.66 215.00 208.27
    26.5800 15.06 226.77 237.80
    26.5900 16.11 259.62 273.16
    26.6000 16.58 275.04 290.29
    26.6100 16.35 267.36 274.99
    26.6200 16.21 262.88 245.19
    26.6300 14.45 208.92 221.45
    26.6400 14.09 198.40 206.64
    26.6500 14.09 198.40 196.54
    26.6600 13.79 190.30 189.62
    26.6700 13.69 187.45 186.05
    26.6800 13.45 180.96 184.70
    26.6900 13.22 174.88 184.39
    26.7000 13.21 174.48 184.52
    26.7100 13.09 171.24 184.91
    26.7200 13.27 176.12 185.64
    26.7300 13.32 177.33 187.19
    26.7400 13.57 184.24 192.06
    26.7500 14.73 217.09 209.93
    26.7600 16.82 282.84 264.35
    26.7700 19.09 364.40 381.32
    26.7800 23.89 570.58 541.64
    26.7900 24.53 601.87 647.44
    26.8000 24.27 589.26 601.12
    26.8100 21.30 453.70 448.89
    26.8200 17.29 299.08 306.37
    26.8300 15.06 226.86 226.61
    26.8400 13.75 189.13 196.20
    26.8500 13.48 181.83 187.12
    26.8600 14.09 198.48 184.30
    26.8700 13.17 173.33 182.98
    26.8800 13.48 181.84 182.11
    26.8900 13.45 181.03 181.46
    26.9000 13.26 175.75 180.96
    26.9100 13.03 169.66 180.58
    26.9200 13.32 177.38 180.31
    26.9300 13.45 181.03 180.44
    26.9400 13.36 178.61 180.99
    26.9500 13.30 176.98 182.33
    26.9600 13.62 185.51 184.12
    26.9700 14.37 206.62 185.13
    26.9800 13.75 189.17 184.36
    26.9900 13.86 192.02 182.69
    27.0000 13.64 185.92 181.28
    27.0100 13.27 176.18 180.76
    27.0200 13.66 186.73 181.24
    27.0300 13.29 176.58 183.42
    27.0400 13.74 188.78 191.44
    27.0500 14.78 218.42 214.37
    27.0600 16.28 265.13 259.91
    27.0700 18.26 333.34 316.21
    27.0800 18.48 341.45 345.06
    27.0900 17.15 293.97 319.10
    27.1000 16.12 259.86 264.75
    27.1100 15.04 226.16 223.06
    27.1200 15.05 226.56 214.23
    27.1300 15.58 242.83 241.82
    27.1400 16.41 269.22 300.39
    27.1500 17.62 310.64 361.90
    27.1600 18.18 330.55 377.82
    27.1700 17.05 290.74 331.21
    27.1800 16.48 271.66 264.22
    27.1900 15.15 229.46 218.35
    27.2000 14.41 207.51 206.15
    27.2100 16.02 256.66 228.57
    27.2200 17.75 315.14 286.73
    27.2300 20.00 400.05 362.66
    27.2400 20.89 436.60 405.81
    27.2500 20.45 418.32 377.83
    27.2600 18.38 337.92 312.51
    27.2700 16.99 288.78 269.53
    27.2800 16.12 259.93 280.18
    27.2900 17.88 319.63 334.94
    27.3000 18.06 326.13 392.57
    27.3100 18.82 354.19 415.48
    27.3200 19.92 396.83 414.07
    27.3300 19.90 396.04 404.40
    27.3400 20.18 407.42 367.62
    27.3500 18.12 328.19 302.53
    27.3600 15.51 240.45 240.47
    27.3700 14.08 198.22 202.18
    27.3800 13.68 187.25 185.53
    27.3900 13.82 190.92 179.82
    27.4000 13.20 174.26 177.83
    27.4100 13.79 190.10 177.16
    27.4200 12.60 158.83 177.51
    27.4300 12.79 163.71 179.89
    27.4400 14.08 198.24 185.15
    27.4500 13.60 184.84 191.92
    27.4600 13.12 172.26 195.43
    27.4700 13.25 175.52 192.05
    27.4800 13.54 183.23 184.73
    27.4900 13.29 176.73 178.62
    27.5000 12.97 168.19 175.37
    27.5100 12.92 166.97 174.11
    27.5200 13.23 175.11 173.66
    27.5300 12.72 161.71 173.44
    27.5400 12.95 167.80 173.30
    27.5500 13.34 177.95 173.29
    27.5600 13.37 178.78 173.53
    27.5700 12.89 166.18 174.73
    27.5800 13.00 169.01 177.03
    27.5900 13.39 179.17 179.57
    27.6000 12.94 167.39 180.37
    27.6100 13.57 184.06 178.56
    27.6200 12.95 167.82 175.74
    27.6300 13.06 170.68 173.54
    27.6400 13.20 174.33 172.54
    27.6500 12.54 157.27 172.20
    27.6600 13.23 175.15 172.04
    27.6700 13.22 174.74 172.10
    27.6800 13.36 178.39 172.28
    27.6900 13.49 182.05 172.99
    27.7000 13.19 173.93 175.53
    27.7100 13.98 195.47 183.65
    27.7200 15.06 226.75 202.22
    27.7300 15.55 241.79 229.91
    27.7400 16.23 263.35 252.00
    27.7500 15.90 252.79 250.38
    27.7600 15.45 238.55 230.35
    27.7700 14.18 201.16 213.03
    27.7800 13.70 187.76 206.38
    27.7900 13.60 184.94 202.15
    27.8000 13.58 184.53 193.16
    27.8100 12.97 168.26 182.73
    27.8200 12.89 166.23 175.56
    27.8300 13.36 178.43 172.23
    27.8400 13.45 180.88 171.06
    27.8500 12.89 166.25 170.68
    27.8600 12.80 163.81 170.57
    27.8700 13.11 171.95 170.73
    27.8800 13.69 187.39 171.74
    27.8900 13.40 179.67 174.99
    27.9000 13.64 186.18 181.78
    27.9100 14.10 198.78 190.74
    27.9200 14.33 205.28 196.13
    27.9300 13.95 194.72 192.93
    27.9400 14.01 196.36 184.57
    27.9500 13.25 175.62 177.93
    27.9600 13.47 181.32 177.65
    27.9700 13.72 188.25 187.48
    27.9800 14.29 204.08 210.26
    27.9900 15.47 239.47 240.15
    28.0000 15.68 246.00 258.16
    28.0100 14.62 213.87 249.40
    28.0200 14.79 218.73 225.96
    28.0300 14.39 206.95 206.21
    28.0400 14.68 215.49 193.62
    28.0500 14.58 212.65 184.08
    28.0600 13.71 187.86 176.84
    28.0700 13.63 185.81 172.72
    28.0800 13.19 174.05 171.65
    28.0900 13.21 174.45 173.38
    28.1000 13.80 190.32 180.08
    28.1100 14.63 213.90 196.23
    28.1200 15.89 252.52 221.93
    28.1300 16.13 260.25 244.46
    28.1400 15.93 253.74 244.45
    28.1500 15.24 232.19 221.89
    28.1600 14.46 209.02 196.48
    28.1700 13.88 192.75 182.27
    28.1800 13.78 189.92 181.20
    28.1900 14.00 196.03 189.10
    28.2000 15.06 226.94 199.53
    28.2100 15.06 226.92 207.50
    28.2200 15.41 237.53 219.93
    28.2300 16.99 288.76 253.50
    28.2400 18.53 343.24 308.79
    28.2500 20.32 412.79 352.82
    28.2600 19.83 393.32 345.26
    28.2700 17.24 297.33 290.86
    28.2800 14.71 216.40 230.67
    28.2900 14.18 200.94 191.99
    28.3000 12.66 160.27 175.02
    28.3100 13.04 170.02 169.38
    28.3200 12.72 161.89 167.56
    28.3300 12.58 158.23 166.80
    28.3400 12.72 161.91 166.31
    28.3500 12.63 159.46 165.94
    28.3600 13.12 172.07 165.63
    28.3700 12.68 160.68 165.39
    28.3800 12.95 167.60 165.17
    28.3900 12.55 157.43 164.99
    28.4000 12.82 164.35 164.82
    28.4100 12.85 165.16 164.68
    28.4200 13.26 175.75 164.54
    28.4300 12.60 158.67 164.42
    28.4400 13.46 181.05 164.32
    28.4500 12.52 156.64 164.24
    28.4600 12.68 160.71 164.13
    28.4700 12.84 164.78 164.08
    28.4800 13.04 170.07 164.11
    28.4900 13.50 182.28 164.30
    28.5000 12.92 166.81 164.75
    28.5100 12.69 161.12 165.39
    28.5200 12.63 159.50 166.09
    28.5300 12.32 151.77 167.36
    28.5400 13.13 172.51 172.12
    28.5500 13.92 193.68 185.47
    28.5600 14.16 200.59 209.55
    28.5700 15.41 237.62 234.77
    28.5800 15.12 228.68 241.43
    28.5900 14.43 208.36 222.68
    28.6000 13.92 193.70 195.55
    28.6100 13.03 169.69 176.05
    28.6200 13.07 170.93 166.96
    28.6300 12.84 164.83 163.89
    28.6400 12.40 153.84 162.95
    28.6500 13.21 174.60 162.56
    28.6600 13.34 177.84 162.31
    28.6700 11.80 139.18 162.13
    28.6800 12.57 157.91 161.99
    28.6900 12.39 153.44 161.89
    28.7000 13.18 173.78 161.85
    28.7100 13.20 174.21 162.02
    28.7200 13.17 173.39 162.96
    28.7300 12.16 147.75 166.08
    28.7400 12.36 152.65 173.15
    28.7500 13.59 184.82 183.35
    28.7600 13.47 181.55 190.84
    28.7700 13.34 177.88 188.77
    28.7800 13.64 186.03 179.11
    28.7900 12.50 156.31 169.44
    28.8000 12.50 156.32 163.72
    28.8100 13.37 178.71 161.39
    28.8200 12.71 161.61 160.62
    28.8300 12.60 158.76 160.31
    28.8400 13.09 171.40 160.13
    28.8500 12.55 157.55 159.97
    28.8600 12.97 168.15 159.93
    28.8700 12.78 163.26 159.80
    28.8800 13.01 169.36 159.68
    28.8900 12.76 162.86 159.67
    28.9000 12.79 163.67 159.62
    28.9100 12.49 155.94 159.62
    28.9200 13.08 171.01 159.62
    28.9300 13.19 173.86 159.62
    28.9400 13.06 170.61 159.63
    28.9500 13.00 168.98 159.63
    28.9600 12.70 161.25 159.67
    28.9700 13.40 179.56 159.68
    28.9800 12.32 151.88 159.71
    28.9900 12.65 160.03 159.73
    29.0000 13.14 172.66 159.77
    29.0100 12.49 155.97 159.80
    29.0200 12.47 155.54 159.85
    29.0300 12.32 151.90 159.92
    29.0400 12.70 161.28 159.99
    29.0500 12.24 149.88 160.09
    29.0600 12.84 164.94 160.21
    29.0700 12.89 166.17 160.36
    29.0800 13.46 181.23 160.56
    29.0900 12.34 152.32 160.84
    29.1000 13.52 182.86 161.33
    29.1100 13.03 169.83 162.43
    29.1200 13.87 192.24 165.41
    29.1300 14.41 207.72 173.21
    29.1400 14.99 224.82 191.06
    29.1500 16.16 261.07 225.30
    29.1600 17.62 310.37 275.89
    29.1700 18.27 333.96 324.68
    29.1800 18.66 348.25 335.59
    29.1900 17.87 319.32 294.50
    29.2000 15.70 246.43 235.32
    29.2100 14.34 205.71 192.10
    29.2200 13.40 179.64 171.73
    29.2300 13.70 187.79 165.53
    29.2400 13.39 179.22 166.25
    29.2500 13.49 182.08 172.34
    29.2600 14.44 208.55 183.24
    29.2700 14.72 216.74 193.77
    29.2800 13.97 195.16 195.13
    29.2900 13.46 181.28 185.79
    29.3000 12.94 167.43 174.13
    29.3100 13.10 171.51 167.06
    29.3200 13.30 176.81 165.83
    29.3300 14.07 197.99 168.20
    29.3400 13.57 184.15 170.99
    29.3500 13.25 175.59 170.43
    29.3600 13.22 174.78 167.10
    29.3700 13.53 182.93 163.61
    29.3800 12.62 159.30 161.50
    29.3900 13.10 171.53 160.63
    29.4000 12.96 167.88 160.37
    29.4100 12.57 158.08 160.30
    29.4200 12.43 154.43 160.29
    29.4300 12.62 159.33 160.30
    29.4400 12.46 155.26 160.34
    29.4500 12.97 168.30 160.39
    29.4600 12.51 156.48 160.46
    29.4700 13.34 178.07 160.54
    29.4800 12.75 162.59 160.66
    29.4900 12.96 167.90 160.80
    29.5000 12.77 163.02 160.92
    29.5100 12.72 161.79 161.16
    29.5200 12.72 161.80 161.45
    29.5300 13.21 174.43 161.84
    29.5400 12.75 162.62 162.42
    29.5500 12.67 160.57 163.51
    29.5600 13.02 169.55 166.04
    29.5700 13.48 181.78 171.55
    29.5800 14.12 199.31 180.76
    29.5900 14.30 204.62 190.81
    29.6000 14.89 221.76 199.51
    29.6100 15.94 253.94 218.91
    29.6200 17.60 309.78 284.72
    29.6300 21.70 470.80 431.32
    29.6400 26.36 694.99 629.07
    29.6500 26.91 724.33 750.95
    29.6600 24.20 585.76 681.94
    29.6700 21.41 458.60 492.47
    29.6800 18.09 327.33 325.26
    29.6900 15.19 230.75 237.01
    29.7000 14.78 218.51 202.65
    29.7100 13.90 193.24 186.77
    29.7200 13.78 189.97 176.19
    29.7300 13.15 172.86 169.59
    29.7400 13.22 174.90 166.51
    29.7500 13.13 172.46 165.76
    29.7600 13.75 189.17 166.96
    29.7700 13.38 178.98 170.85
    29.7800 14.41 207.53 178.55
    29.7900 14.35 205.91 190.80
    29.8000 14.28 203.86 206.96
    29.8100 14.32 205.09 222.55
    29.8200 15.08 227.51 226.50
    29.8300 14.56 212.03 213.46
    29.8400 13.93 194.09 195.42
    29.8500 14.43 208.35 189.07
    29.8600 15.08 227.53 210.04
    29.8700 17.85 318.46 273.49
    29.8800 21.32 454.63 375.39
    29.8900 20.86 435.10 466.11
    29.9000 21.44 459.54 476.40
    29.9100 18.87 355.99 410.01
    29.9200 17.63 310.73 330.92
    29.9300 16.23 263.42 270.27
    29.9400 14.45 208.79 226.53
    29.9500 14.69 215.72 199.34
    29.9600 14.83 219.80 194.40
    29.9700 16.00 256.10 223.59
    29.9800 18.58 345.40 299.20
    29.9900 21.31 454.29 407.65
    30.0000 23.31 543.21 483.43
    30.0100 22.63 512.21 456.67
    30.0200 18.01 324.25 353.79
    30.0300 15.97 254.91 254.26
    30.0400 14.49 210.02 197.01
    30.0500 13.76 189.23 174.69
    30.0600 13.46 181.08 168.19
    30.0700 13.61 185.17 166.62
    30.0800 13.35 178.25 167.16
    30.0900 12.90 166.44 171.57
    30.1000 13.89 192.94 185.42
    30.1100 14.14 199.88 215.25
    30.1200 15.13 228.82 258.60
    30.1300 16.80 282.28 295.21
    30.1400 16.45 270.44 299.72
    30.1500 15.25 232.51 272.24
    30.1600 14.37 206.40 243.90
    30.1700 15.14 229.25 244.92
    30.1800 16.48 271.69 275.47
    30.1900 16.86 284.31 305.05
    30.2000 17.95 322.29 300.49
    30.2100 15.99 255.81 262.98
    30.2200 14.38 206.84 219.18
    30.2300 13.37 178.68 188.37
    30.2400 13.23 175.01 173.51
    30.2500 13.65 186.44 170.35
    30.2600 13.43 180.33 176.68
    30.2700 13.53 183.19 191.93
    30.2800 13.88 192.57 210.73
    30.2900 13.82 190.95 221.07
    30.3000 14.50 210.12 217.42
    30.3100 14.58 212.58 211.09
    30.3200 14.98 224.42 211.36
    30.3300 14.14 199.94 212.72
    30.3400 14.08 198.29 204.92
    30.3500 14.15 200.34 189.36
    30.3600 13.52 182.81 175.55
    30.3700 12.14 147.31 168.32
    30.3800 13.15 173.02 167.46
    30.3900 13.11 171.79 173.19
    30.4000 13.88 192.62 188.76
    30.4100 14.80 219.13 215.39
    30.4200 15.46 239.13 245.32
    30.4300 15.84 250.98 269.52
    30.4400 17.38 302.00 297.80
    30.4500 18.29 334.63 344.63
    30.4600 18.77 352.21 386.02
    30.4700 18.34 336.31 375.27
    30.4800 17.57 308.53 320.38
    30.4900 15.91 253.04 276.47
    30.5000 17.72 313.85 277.68
    30.5100 19.48 379.56 320.42
    30.5200 21.78 474.29 378.62
    30.5300 23.75 564.06 410.43
    30.5400 23.31 543.25 377.08
    30.5500 19.54 381.63 299.73
    30.5600 15.33 235.09 228.82
    30.5700 14.20 201.62 187.93
    30.5800 13.72 188.17 171.37
    30.5900 13.95 194.71 166.13
    30.6000 12.73 162.06 164.53
    30.6100 13.12 172.26 163.96
    30.6200 12.63 159.61 163.79
    30.6300 12.71 161.66 164.05
    30.6400 12.89 166.14 165.24
    30.6500 13.30 176.76 169.30
    30.6600 13.25 175.53 180.52
    30.6700 13.85 191.87 203.32
    30.6800 15.36 235.95 235.20
    30.6900 16.92 286.16 266.45
    30.7000 17.13 293.53 298.11
    30.7100 18.88 356.40 353.21
    30.7200 19.54 381.73 430.35
    30.7300 20.46 418.47 469.95
    30.7400 19.33 373.57 418.91
    30.7500 16.87 284.58 317.65
    30.7600 15.17 230.28 234.18
    30.7700 15.09 227.81 194.01
    30.7800 15.03 225.77 187.75
    30.7900 14.33 205.36 199.68
    30.8000 14.61 213.55 216.80
    30.8100 14.16 200.48 225.77
    30.8200 13.81 190.69 217.66
    30.8300 13.46 181.29 197.63
    30.8400 13.85 191.91 179.17
    30.8500 13.96 194.76 168.87
    30.8600 13.22 174.76 166.36
    30.8700 13.39 179.25 171.10
    30.8800 13.25 175.59 183.96
    30.8900 13.69 187.42 202.50
    30.9000 14.04 197.24 215.86
    30.9100 14.15 200.11 211.70
    30.9200 12.73 162.11 194.47
    30.9300 13.33 177.64 177.93
    30.9400 13.17 173.55 170.32
    30.9500 14.03 196.83 173.58
    30.9600 13.71 187.85 187.95
    30.9700 14.68 215.63 208.93
    30.9800 15.07 227.08 223.45
    30.9900 13.88 192.77 217.98
    31.0000 14.35 205.86 197.88
    31.0100 13.81 190.74 178.59
    31.0200 13.18 173.59 167.51
    31.0300 12.96 167.87 163.27
    31.0400 12.69 160.93 162.14
    31.0500 12.47 155.61 162.02
    31.0600 13.16 173.19 162.09
    31.0700 13.03 169.91 162.69
    31.0800 13.31 177.28 164.31
    31.0900 13.21 174.41 169.49
    31.1000 14.06 197.72 184.59
    31.1100 15.10 227.95 217.96
    31.1200 14.91 222.24 268.18
    31.1300 16.08 258.60 311.10
    31.1400 15.64 244.70 312.17
    31.1500 15.97 254.92 270.48
    31.1600 14.65 214.48 221.71
    31.1700 14.02 196.52 192.98
    31.1800 14.83 219.80 192.72
    31.1900 15.74 247.61 226.99
    31.2000 18.19 330.94 303.77
    31.2100 19.97 398.77 410.42
    31.2200 21.77 473.93 494.76
    31.2300 22.31 497.69 502.96
    31.2400 21.40 458.06 440.53
    31.2500 20.10 404.12 367.57
    31.2600 18.76 351.82 347.10
    31.2700 17.68 312.60 379.28
    31.2800 18.04 325.27 401.67
    31.2900 16.84 283.60 360.68
    31.3000 15.11 228.43 282.23
    31.3100 14.28 203.91 216.57
    31.3200 13.09 171.22 181.79
    31.3300 12.64 159.79 168.71
    31.3400 13.09 171.24 164.59
    31.3500 12.28 150.82 163.09
    31.3600 13.18 173.70 162.28
    31.3700 12.88 165.92 161.95
    31.3800 12.90 166.34 161.61
    31.3900 12.06 145.50 161.53
    31.4000 12.83 164.69 161.72
    31.4100 12.75 162.67 163.04
    31.4200 13.32 177.38 167.41
    31.4300 12.16 147.96 177.10
    31.4400 13.53 183.12 190.99
    31.4500 13.65 186.40 201.20
    31.4600 13.26 175.77 198.43
    31.4700 13.15 172.90 185.55
    31.4800 12.48 155.74 172.60
    31.4900 12.61 159.01 164.95
    31.5000 12.15 147.57 161.91
    31.5100 12.66 160.25 161.05
    31.5200 12.43 154.53 160.93
    31.5300 12.58 158.22 161.15
    31.5400 12.20 148.82 161.26
    31.5500 12.58 158.22 161.33
    31.5600 12.69 161.09 161.50
    31.5700 13.15 172.94 161.87
    31.5800 12.33 152.10 162.47
    31.5900 12.80 163.96 163.56
    31.6000 12.85 165.17 165.41
    31.6100 13.18 173.78 167.80
    31.6200 13.43 180.33 170.28
    31.6300 13.55 183.61 172.85
    31.6400 14.05 197.52 180.46
    31.6500 15.33 235.15 206.81
    31.6600 17.54 307.53 272.67
    31.6700 20.01 400.37 385.75
    31.6800 22.63 511.98 509.88
    31.6900 23.50 552.10 572.05
    31.7000 22.14 489.98 540.17
    31.7100 19.83 393.04 448.91
    31.7200 17.44 304.30 341.12
    31.7300 15.94 254.00 254.10
    31.7400 14.10 198.76 202.57
    31.7500 12.84 164.82 179.67
    31.7600 13.81 190.61 171.97
    31.7700 13.73 188.56 170.13
    31.7800 13.09 171.39 170.72
    31.7900 13.88 192.67 175.11
    31.8000 14.26 203.27 191.65
    31.8100 15.01 225.37 239.27
    31.8200 18.47 341.13 336.19
    31.8300 22.19 492.50 463.40
    31.8400 24.92 620.96 542.71
    31.8500 23.70 561.63 501.42
    31.8600 20.84 434.42 379.27
    31.8700 16.74 280.22 266.32
    31.8800 15.12 228.67 202.59
    31.8900 13.73 188.57 177.72
    31.9000 13.57 184.09 170.22
    31.9100 13.05 170.18 168.36
    31.9200 12.76 162.82 168.71
    31.9300 13.22 174.68 172.14
    31.9400 13.48 181.65 180.22
    31.9500 13.88 192.69 191.42
    31.9600 12.79 163.66 198.87
    31.9700 12.84 164.88 195.76
    31.9800 13.49 182.07 185.08
    31.9900 12.95 167.75 175.23
    32.0000 13.61 185.33 170.29
    32.0100 13.51 182.47 170.65
    32.0200 13.93 193.93 178.69
    32.0300 15.03 225.85 200.54
    32.0400 15.34 235.25 238.57
    32.0500 17.65 311.38 278.84
    32.0600 16.75 280.70 291.61
    32.0700 15.98 255.34 265.54
    32.0800 15.64 244.70 224.76
    32.0900 14.35 205.82 193.56
    32.1000 13.17 173.49 178.24
    32.1100 13.76 189.45 173.99
    32.1200 13.34 178.00 177.49
    32.1300 14.09 198.46 194.08
    32.1400 15.39 236.94 238.71
    32.1500 16.60 275.41 321.63
    32.1600 19.24 370.34 418.75
    32.1700 18.75 351.54 464.39
    32.1800 18.53 343.34 419.22
    32.1900 16.41 269.29 335.86
    32.2000 16.96 287.71 290.99
    32.2100 17.50 306.13 312.62
    32.2200 19.16 367.13 367.92
    32.2300 18.74 351.16 391.75
    32.2400 18.91 357.68 354.99
    32.2500 17.34 300.82 301.69
    32.2600 17.58 309.02 285.55
    32.2700 18.39 338.09 326.28
    32.2800 19.46 378.60 400.08
    32.2900 19.61 384.71 442.40
    32.3000 19.31 372.83 401.93
    32.3100 17.14 293.87 312.50
    32.3200 15.31 234.53 235.36
    32.3300 13.91 193.60 194.70
    32.3400 13.69 187.47 182.53
    32.3500 14.15 200.16 185.85
    32.3600 14.19 201.40 196.14
    32.3700 14.41 207.54 205.03
    32.3800 14.45 208.77 205.25
    32.3900 13.68 187.07 200.18
    32.4000 13.78 189.93 198.42
    32.4100 14.25 203.04 202.78
    32.4200 14.63 214.10 210.55
    32.4300 14.13 199.76 218.72
    32.4400 14.18 201.02 220.98
    32.4500 14.46 209.20 211.06
    32.4600 13.65 186.29 194.99
    32.4700 13.77 189.56 182.99
    32.4800 13.18 173.59 180.06
    32.4900 13.71 187.92 186.64
    32.5000 14.16 200.60 202.33
    32.5100 15.29 233.78 228.13
    32.5200 17.37 301.75 269.67
    32.5300 19.44 377.91 333.08
    32.5400 20.12 404.96 402.35
    32.5500 20.61 424.60 434.88
    32.5600 19.12 365.64 404.88
    32.5700 17.10 292.38 330.50
    32.5800 15.67 245.69 260.05
    32.5900 14.99 224.80 223.25
    32.6000 15.52 240.77 219.55
    32.6100 15.18 230.55 234.68
    32.6200 16.10 259.22 253.43
    32.6300 15.70 246.52 261.49
    32.6400 15.24 232.20 249.24
    32.6500 14.58 212.55 223.86
    32.6600 13.71 187.98 198.74
    32.6700 13.38 178.96 182.33
    32.6800 13.11 171.99 174.58
    32.6900 13.07 170.78 171.86
    32.7000 12.91 166.69 171.32
    32.7100 13.29 176.52 172.17
    32.7200 13.05 170.39 175.64
    32.7300 13.55 183.49 184.74
    32.7400 14.12 199.47 201.05
    32.7500 14.01 196.20 219.38
    32.7600 14.28 203.98 227.29
    32.7700 14.50 210.13 220.13
    32.7800 13.95 194.57 214.23
    32.7900 15.05 226.50 232.64
    32.8000 16.88 285.08 286.23
    32.8100 17.99 323.61 355.14
    32.8200 18.63 346.98 388.64
    32.8300 18.27 333.86 356.40
    32.8400 17.16 294.56 296.58
    32.8500 15.66 245.38 256.27
    32.8600 15.40 237.21 242.19
    32.8700 14.82 219.60 234.09
    32.8800 14.83 220.00 225.29
    32.8900 14.89 221.63 235.43
    32.9000 17.11 292.91 294.06
    32.9100 20.21 408.44 413.89
    32.9200 24.26 588.33 558.44
    32.9300 26.44 699.01 640.91
    32.9400 24.98 623.98 608.68
    32.9500 22.85 521.98 492.41
    32.9600 20.39 415.87 357.75
    32.9700 17.39 302.38 260.02
    32.9800 14.47 209.40 210.54
    32.9900 14.02 196.69 193.79
    33.0000 13.71 188.09 191.91
    33.0100 14.07 197.93 197.38
    33.0200 14.13 199.57 212.52
    33.0300 15.09 227.83 237.04
    33.0400 15.47 239.31 256.59
    33.0500 15.08 227.43 251.65
    33.0600 14.50 210.23 225.53
    33.0700 13.46 181.14 198.41
    33.0800 13.21 174.57 181.83
    33.0900 12.74 162.28 174.86
    33.1000 13.10 171.70 172.65
    33.1100 13.64 186.04 172.05
    33.1200 12.30 151.23 172.12
    33.1300 12.66 160.24 173.36
    33.1400 12.85 165.16 177.46
    33.1500 12.93 167.21 186.27
    33.1600 13.38 179.09 198.73
    33.1700 14.39 206.97 207.54
    33.1800 12.79 163.53 204.73
    33.1900 13.41 179.92 193.09
    33.2000 13.31 177.05 181.63
    33.2100 13.52 182.81 174.83
    33.2200 12.56 157.80 172.04
    33.2300 13.41 179.92 171.15
    33.2400 12.41 154.11 170.89
    33.2500 12.66 160.26 170.81
    33.2600 12.95 167.63 170.58
    33.2700 13.14 172.57 170.48
    33.2800 13.00 168.89 170.53
    33.2900 13.64 186.10 170.67
    33.3000 13.45 180.78 170.77
    33.3100 12.84 164.79 170.92
    33.3200 13.14 172.58 171.18
    33.3300 13.03 169.71 171.90
    33.3400 12.92 166.85 173.83
    33.3500 13.21 174.63 178.48
    33.3600 13.12 172.17 185.14
    33.3700 14.24 202.91 191.14
    33.3800 13.14 172.58 192.79
    33.3900 12.87 165.61 191.08
    33.4000 12.85 165.20 189.87
    33.4100 13.37 178.74 189.00
    33.4200 13.37 178.75 185.94
    33.4300 13.03 169.73 182.24
    33.4400 12.95 167.69 181.70
    33.4500 13.73 188.59 185.83
    33.4600 13.66 186.54 191.51
    33.4700 13.69 187.38 192.80
    33.4800 13.91 193.53 187.76
    33.4900 13.36 178.37 180.82
    33.5000 12.82 164.42 175.91
    33.5100 11.91 141.88 173.77
    33.5200 13.00 168.94 173.26
    33.5300 12.37 152.95 173.42
    33.5400 13.14 172.64 173.92
    33.5500 13.60 184.94 174.95
    33.5600 13.42 180.01 177.76
    33.5700 13.48 181.65 186.03
    33.5800 14.32 205.04 205.87
    33.5900 15.79 249.34 239.30
    33.6000 17.40 302.66 273.67
    33.6100 16.94 287.08 284.04
    33.6200 17.80 317.00 265.21
    33.6300 16.86 284.21 250.07
    33.6400 18.18 330.56 282.65
    33.6500 20.86 435.17 391.83
    33.6600 23.60 556.96 553.56
    33.6700 26.16 684.52 666.03
    33.6800 24.45 598.01 623.80
    33.6900 21.19 449.08 468.45
    33.7000 17.86 319.09 319.64
    33.7100 15.88 252.25 238.12
    33.7200 15.95 254.31 219.71
    33.7300 15.90 252.66 241.00
    33.7400 16.25 264.16 277.75
    33.7500 16.98 288.37 299.48
    33.7600 16.74 280.16 285.19
    33.7700 15.96 254.72 247.39
    33.7800 15.16 229.71 211.39
    33.7900 13.78 189.92 190.47
    33.8000 14.15 200.19 184.59
    33.8100 13.48 181.72 188.46
    33.8200 13.43 180.49 196.81
    33.8300 13.66 186.65 202.08
    33.8400 13.93 194.04 198.32
    33.8500 13.19 173.93 188.74
    33.8600 13.33 177.63 180.10
    33.8700 12.54 157.13 175.23
    33.8800 12.62 159.18 173.29
    33.8900 13.28 176.41 172.68
    33.9000 12.60 158.76 172.49
    33.9100 13.40 179.68 172.45
    33.9200 12.87 165.75 172.49
    33.9300 12.73 162.06 172.60
    33.9400 13.19 173.96 172.74
    33.9500 12.73 162.06 173.03
    33.9600 12.78 163.30 173.46
    33.9700 13.71 187.91 174.17
    33.9800 13.44 180.54 175.51
    33.9900 13.84 191.61 179.15
    34.0000 14.29 204.32 189.97
    34.0100 14.48 209.67 217.68
    34.0200 16.72 279.42 266.68
    34.0300 17.78 315.97 320.99
    34.0400 18.25 333.20 343.73
    34.0500 17.79 316.36 318.98
    34.0600 16.87 284.75 280.99
    34.0700 16.16 260.99 264.41
    34.0800 16.31 265.91 274.94
    34.0900 18.31 335.27 312.53
    34.1000 22.50 506.39 398.57
    34.1100 27.34 747.30 534.63
    34.1200 29.93 895.85 643.86
    34.1300 30.00 899.96 618.52
    34.1400 26.45 699.74 475.24
    34.1500 20.32 412.86 325.51
    34.1600 16.09 258.95 233.30
    34.1700 14.15 200.27 194.42
    34.1800 13.93 194.12 181.83
    34.1900 13.08 171.15 177.86
    34.2000 13.19 174.03 176.16
    34.2100 13.77 189.60 175.20
    34.2200 12.83 164.59 174.84
    34.2300 12.94 167.46 174.72
    34.2400 12.99 168.69 175.48
    34.2500 12.93 167.06 178.82
    34.2600 13.42 180.19 188.64
    34.2700 13.56 183.88 209.66
    34.2800 14.43 208.12 241.71
    34.2900 15.15 229.46 273.73
    34.3000 15.01 225.36 288.92
    34.3100 15.67 245.48 279.72
    34.3200 15.90 252.87 252.60
    34.3300 15.59 243.03 222.20
    34.3400 14.24 202.79 198.47
    34.3500 13.90 193.34 183.98
    34.3600 13.96 195.01 176.78
    34.3700 12.80 163.80 173.73
    34.3800 13.47 181.46 172.65
    34.3900 12.69 160.93 172.29
    34.4000 13.30 176.94 172.23
    34.4100 13.10 171.60 172.40
    34.4200 13.16 173.26 173.06
    34.4300 13.30 176.96 174.38
    34.4400 13.58 184.35 176.84
    34.4500 14.26 203.22 181.18
    34.4600 14.13 199.53 189.28
    34.4700 14.92 222.53 199.82
    34.4800 15.16 229.91 207.32
    34.4900 15.18 230.33 208.31
    34.5000 15.46 238.96 213.97
    34.5100 15.84 250.88 246.81
    34.5200 18.76 351.87 320.99
    34.5300 20.75 430.75 414.36
    34.5400 21.27 452.51 462.93
    34.5500 20.89 436.47 424.42
    34.5600 18.49 342.04 346.10
    34.5700 17.35 300.97 289.18
    34.5800 16.19 261.97 264.96
    34.5900 15.83 250.49 251.48
    34.6000 15.84 250.91 231.72
    34.6100 15.39 236.93 208.11
    34.6200 14.19 201.23 190.89
    34.6300 13.41 179.88 184.99
    34.6400 13.50 182.35 190.29
    34.6500 14.00 195.91 202.81
    34.6600 14.82 219.71 213.65
    34.6700 14.03 196.73 212.36
    34.6800 14.10 198.78 199.96
    34.6900 13.35 178.24 187.02
    34.7000 13.01 169.22 181.14
    34.7100 13.29 176.61 184.90
    34.7200 13.43 180.31 197.71
    34.7300 14.22 202.07 213.57
    34.7400 14.54 211.53 220.68
    34.7500 13.95 194.69 211.96
    34.7600 13.38 179.09 196.12
    34.7700 13.64 186.07 185.07
    34.7800 13.46 181.14 184.58
    34.7900 14.35 205.81 194.82
    34.8000 13.35 178.29 210.49
    34.8100 13.94 194.30 220.16
    34.8200 14.63 214.03 214.28
    34.8300 14.39 207.04 198.78
    34.8400 13.66 186.51 184.93
    34.8500 13.95 194.73 177.61
    34.8600 13.20 174.18 176.70
    34.8700 13.94 194.32 181.99
    34.8800 14.09 198.43 194.16
    34.8900 14.07 198.03 209.30
    34.9000 14.53 211.19 218.01
    34.9100 14.39 207.07 214.38
    34.9200 13.94 194.34 204.78
    34.9300 13.34 177.90 195.92
    34.9400 13.64 186.11 188.40
    34.9500 13.72 188.17 181.89
    34.9600 13.87 192.30 178.10
    34.9700 13.66 186.55 178.55
    34.9800 13.54 183.26 184.84
    34.9900 14.74 217.37 196.37
    35.0000 14.95 223.53 209.75
    35.0100 15.28 233.38 222.94
    35.0200 16.49 272.03 243.39
    35.0300 18.03 325.05 276.37
    35.0400 17.83 318.07 304.33
    35.0500 18.12 328.32 297.18
    35.0600 16.19 262.18 257.89
    35.0700 15.05 226.43 217.03
    35.0800 14.55 211.63 194.45
    35.0900 14.38 206.70 194.26
    35.1000 15.33 235.06 216.33
    35.1100 17.51 306.58 256.34
    35.1200 17.50 306.17 294.30
    35.1300 18.34 336.18 298.73
    35.1400 16.82 282.76 264.89
    35.1500 15.08 227.27 222.43
    35.1600 14.31 204.66 193.45
    35.1700 14.56 212.09 180.53
    35.1800 13.32 177.55 177.02
    35.1900 13.29 176.73 178.42
    35.2000 13.90 193.18 184.91
    35.2100 14.36 206.32 198.21
    35.2200 14.94 223.18 216.21
    35.2300 15.43 237.99 231.92
    35.2400 16.17 261.43 246.21
    35.2500 18.39 338.29 283.48
    35.2600 19.57 383.11 367.52
    35.2700 21.49 462.01 476.46
    35.2800 22.55 508.48 532.61
    35.2900 21.06 443.55 481.42
    35.3000 18.70 349.82 370.57
    35.3100 16.68 278.29 273.36
    35.3200 15.70 246.64 223.75
    35.3300 16.18 261.85 221.55
    35.3400 17.30 299.26 258.42
    35.3500 17.80 316.95 317.04
    35.3600 18.28 334.23 358.50
    35.3700 18.17 330.11 343.85
    35.3800 17.44 304.21 287.05
    35.3900 15.84 250.79 232.08
    35.4000 14.76 217.88 201.96
    35.4100 14.89 221.60 195.29
    35.4200 14.19 201.45 202.55
    35.4300 15.45 238.85 219.86
    35.4400 17.00 289.02 255.53
    35.4500 20.09 403.73 321.90
    35.4600 20.61 424.70 404.96
    35.4700 22.42 502.84 451.93
    35.4800 20.82 433.35 422.25
    35.4900 18.50 342.07 341.13
    35.5000 15.94 254.09 260.63
    35.5100 14.34 205.57 209.47
    35.5200 14.24 202.71 185.78
    35.5300 13.27 175.97 177.13
    35.5400 13.63 185.86 174.44
    35.5500 12.98 168.60 174.05
    35.5600 12.62 159.14 174.95
    35.5700 13.05 170.24 176.43
    35.5800 12.61 159.13 177.08
    35.5900 13.03 169.81 176.00
    35.6000 13.03 169.82 174.10
    35.6100 13.92 193.67 172.47
    35.6200 13.02 169.41 172.03
    35.6300 13.14 172.70 172.67
    35.6400 13.78 189.99 174.68
    35.6500 13.57 184.23 178.97
    35.6600 14.05 197.40 187.85
    35.6700 15.89 252.53 208.24
    35.6800 16.93 286.66 253.70
    35.6900 17.97 322.86 331.47
    35.7000 20.70 428.55 414.53
    35.7100 19.26 370.97 441.53
    35.7200 18.14 329.05 388.76
    35.7300 17.02 289.54 309.81
    35.7400 15.87 251.72 252.52
    35.7500 14.53 211.00 220.37
    35.7600 13.95 194.55 199.68
    35.7700 13.57 184.28 185.15
    35.7800 13.39 179.34 176.42
    35.7900 13.36 178.52 172.30
    35.8000 13.25 175.63 170.50
    35.8100 12.95 167.82 169.70
    35.8200 12.79 163.69 169.25
    35.8300 13.03 169.87 168.94
    35.8400 13.14 172.77 168.76
    35.8500 13.13 172.35 168.59
    35.8600 12.70 161.25 168.46
    35.8700 12.75 162.49 168.37
    35.8800 12.73 162.08 168.31
    35.8900 13.10 171.55 168.31
    35.9000 13.19 174.01 168.31
    35.9100 12.57 157.96 168.35
    35.9200 12.50 156.33 168.63
    35.9300 13.07 170.73 168.93
    35.9400 12.80 163.74 169.78
    35.9500 13.00 169.09 172.32
    35.9600 13.44 180.61 178.71
    35.9700 13.10 171.58 191.02
    35.9800 14.75 217.65 207.81
    35.9900 14.95 223.40 221.31
    36.0000 14.67 215.18 221.80
    36.0100 14.49 209.84 208.02
    36.0200 13.76 189.27 190.55
    36.0300 13.70 187.62 178.31
    36.0400 12.97 168.28 172.73
    36.0500 12.76 162.93 172.41
    36.0600 13.49 181.88 176.40
    36.0700 14.16 200.39 184.61
    36.0800 13.86 192.17 194.39
    36.0900 13.53 183.11 199.16
    36.1000 13.56 183.93 194.74
    36.1100 13.74 188.87 186.65
    36.1200 13.89 193.00 183.71
    36.1300 15.03 225.92 192.41
    36.1400 15.30 234.15 214.42
    36.1500 16.19 262.15 241.58
    36.1600 15.75 248.14 255.57
    36.1700 16.34 267.10 246.65
    36.1800 16.26 264.23 231.26
    36.1900 15.64 244.48 228.60
    36.2000 17.25 297.57 243.80
    36.2100 18.94 358.91 274.31
    36.2200 18.67 348.65 321.70
    36.2300 21.30 453.58 386.03
    36.2400 21.52 463.02 433.66
    36.2500 20.37 414.87 412.42
    36.2600 17.94 321.88 332.63
    36.2700 15.60 243.26 252.01
    36.2800 14.30 204.57 203.10
    36.2900 13.73 188.52 184.06
    36.3000 13.94 194.29 181.60
    36.3100 13.98 195.52 185.99
    36.3200 13.44 180.70 190.54
    36.3300 13.20 174.12 190.31
    36.3400 13.61 185.23 187.38
    36.3500 13.30 177.00 189.66
    36.3600 14.09 198.41 202.28
    36.3700 14.62 213.66 220.58
    36.3800 14.36 206.26 229.85
    36.3900 14.20 201.73 219.64
    36.4000 13.81 190.62 199.18
    36.4100 13.29 176.61 181.94
    36.4200 13.21 174.57 172.65
    36.4300 13.17 173.33 169.04
    36.4400 13.20 174.14 167.86
    36.4500 12.57 158.10 167.41
    36.4600 12.82 164.29 167.23
    36.4700 12.46 155.23 167.14
    36.4800 13.04 170.05 167.31
    36.4900 13.21 174.58 167.94
    36.5000 13.07 170.88 169.29
    36.5100 12.67 160.59 171.03
    36.5200 13.12 172.12 171.85
    36.5300 12.98 168.41 171.26
    36.5400 12.29 151.11 170.45
    36.5500 13.38 179.11 171.90
    36.5600 12.87 165.53 178.14
    36.5700 14.25 203.00 189.95
    36.5800 13.67 186.95 202.71
    36.5900 15.04 226.07 207.49
    36.6000 14.19 201.36 200.37
    36.6100 13.72 188.20 188.69
    36.6200 13.48 181.61 179.50
    36.6300 13.41 179.95 173.79
    36.6400 13.09 171.31 170.40
    36.6500 12.18 148.26 168.56
    36.6600 12.80 163.90 167.89
    36.6700 12.77 163.10 168.10
    36.6800 12.72 161.86 169.71
    36.6900 13.66 186.57 174.53
    36.7000 13.09 171.35 184.93
    36.7100 13.64 186.16 200.16
    36.7200 14.76 217.87 213.20
    36.7300 14.36 206.34 214.49
    36.7400 14.26 203.47 205.85
    36.7500 14.37 206.36 199.88
    36.7600 14.05 197.30 204.95
    36.7700 15.24 232.31 217.31
    36.7800 14.83 219.96 223.64
    36.7900 15.16 229.84 217.54
    36.8000 14.49 210.09 213.17
    36.8100 15.08 227.37 230.12
    36.8200 15.66 245.11 273.27
    36.8300 17.22 296.59 320.06
    36.8400 17.21 296.18 329.85
    36.8500 14.97 224.09 291.74
    36.8600 14.62 213.80 239.55
    36.8700 14.27 203.50 203.74
    36.8800 14.61 213.39 193.70
    36.8900 14.71 216.28 210.81
    36.9000 17.13 293.32 258.55
    36.9100 19.70 388.10 330.54
    36.9200 20.92 437.54 392.22
    36.9300 20.04 401.68 395.46
    36.9400 19.43 377.38 338.48
    36.9500 17.58 308.98 276.04
    36.9600 17.14 293.74 248.76
    36.9700 16.70 278.90 254.50
    36.9800 16.93 286.74 263.00
    36.9900 16.50 272.34 250.73
    37.0000 15.94 254.22 226.35
    37.0100 14.12 199.43 206.45
    37.0200 14.08 198.18 193.77
    37.0300 14.27 203.54 183.86
    37.0400 13.36 178.41 175.79
    37.0500 13.03 169.76 170.59
    37.0600 13.23 175.11 168.21
    37.0700 12.93 167.30 167.90
    37.0800 13.65 186.25 169.17
    37.0900 13.26 175.95 172.16
    37.1000 13.37 178.83 176.55
    37.1100 13.53 182.95 180.46
    37.1200 14.05 197.38 180.71
    37.1300 13.19 173.90 176.65
    37.1400 12.53 156.99 171.55
    37.1500 13.33 177.61 168.26
    37.1600 12.50 156.19 167.63
    37.1700 12.55 157.42 170.21
    37.1800 13.37 178.86 177.69
    37.1900 14.22 202.35 190.13
    37.2000 15.18 230.37 203.00
    37.2100 15.39 236.98 207.44
    37.2200 14.74 217.21 199.24
    37.2300 14.43 208.15 185.93
    37.2400 13.86 192.06 175.82
    37.2500 13.22 174.75 170.68
    37.2600 12.82 164.45 167.99
    37.2700 12.76 162.81 166.36
    37.2800 12.42 154.16 165.17
    37.2900 12.37 152.93 164.56
    37.3000 12.70 161.18 164.53
    37.3100 12.76 162.82 165.05
    37.3200 13.30 176.85 166.55
    37.3300 12.53 157.06 168.89
    37.3400 13.17 173.54 170.99
    37.3500 13.42 180.13 171.26
    37.3600 12.63 159.52 169.64
    37.3700 12.38 153.35 167.67
    37.3800 12.89 166.13 166.70
    37.3900 12.70 161.18 166.90
    37.4000 12.70 161.20 167.39
    37.4100 13.19 173.97 167.41
    37.4200 13.10 171.50 167.25
    37.4300 13.33 177.68 168.33
    37.4400 13.36 178.51 173.36
    37.4500 14.08 198.29 186.56
    37.4600 14.80 218.92 210.59
    37.4700 15.10 228.00 240.41
    37.4800 15.77 248.62 261.57
    37.4900 16.05 257.68 264.72
    37.5000 15.87 251.91 255.09
    37.5100 15.36 235.85 242.12
    37.5200 14.98 224.29 233.62
    37.5300 15.00 225.14 225.51
    37.5400 15.03 225.96 212.47
    37.5500 14.82 219.77 203.73
    37.5600 14.74 217.30 213.84
    37.5700 16.35 267.18 248.69
    37.5800 16.08 258.53 294.56
    37.5900 16.38 268.44 320.89
    37.6000 16.94 287.01 311.73
    37.6100 16.67 277.93 285.47
    37.6200 16.03 256.93 255.89
    37.6300 14.60 213.22 224.24
    37.6400 13.68 187.23 196.71
    37.6500 13.24 175.27 178.87
    37.6600 13.10 171.56 170.49
    37.6700 12.58 158.35 168.35
    37.6800 13.52 182.69 170.70
    37.6900 13.42 180.23 178.07
    37.7000 13.33 177.75 189.99
    37.7100 13.19 174.04 201.21
    37.7200 13.85 191.77 203.55
    37.7300 14.07 197.95 195.93
    37.7400 14.06 197.55 184.59
    37.7500 13.25 175.69 176.07
    37.7600 13.29 176.53 174.70
    37.7700 14.14 200.04 182.86
    37.7800 14.49 209.95 199.73
    37.7900 14.20 201.71 217.03
    37.8000 14.72 216.56 220.70
    37.8100 14.66 214.90 207.27
    37.8200 14.06 197.58 189.64
    37.8300 13.58 184.37 178.16
    37.8400 13.30 176.96 173.45
    37.8500 13.32 177.36 170.95
    37.8600 12.77 162.95 168.28
    37.8700 13.29 176.55 166.30
    37.8800 13.32 177.38 166.58
    37.8900 13.13 172.43 171.05
    37.9000 13.69 187.28 181.59
    37.9100 14.00 195.95 197.21
    37.9200 14.65 214.53 211.62
    37.9300 14.48 209.58 218.87
    37.9400 14.60 213.29 221.56
    37.9500 14.38 206.68 221.81
    37.9600 14.59 212.87 213.41
    37.9700 13.59 184.82 196.25
    37.9800 13.15 172.86 179.43
    37.9900 12.55 157.60 168.90
    38.0000 13.10 171.62 164.15
    38.0100 12.50 156.36 162.49
    38.0200 12.86 165.45 161.91
    38.0300 12.39 153.49 161.68
    38.0400 13.15 172.89 161.67
    38.0500 12.17 148.12 162.05
    38.0600 13.16 173.30 163.18
    38.0700 12.80 163.81 165.09
    38.0800 12.70 161.34 167.00
    38.0900 12.81 164.22 167.38
    38.1000 12.72 161.75 165.84
    38.1100 12.32 151.85 163.71
    38.1200 12.62 159.27 162.19
    38.1300 12.27 150.61 161.46
    38.1400 13.02 169.61 161.36
    38.1500 12.90 166.31 161.68
    38.1600 12.69 160.94 162.57
    38.1700 12.36 152.69 164.30
    38.1800 13.32 177.46 167.02
    38.1900 13.94 194.38 171.25
    38.2000 13.48 181.58 179.30
    38.2100 14.03 196.86 194.50
    38.2200 14.62 213.78 214.35
    38.2300 15.26 232.77 226.26
    38.2400 14.69 215.84 218.91
    38.2500 14.13 199.75 200.90
    38.2600 13.84 191.50 189.30
    38.2700 13.85 191.92 194.87
    38.2800 14.94 223.29 220.37
    38.2900 15.85 251.33 260.38
    38.3000 16.81 282.72 298.83
    38.3100 18.06 326.06 314.10
    38.3200 17.59 309.54 292.41
    38.3300 16.34 267.04 250.96
    38.3400 14.83 219.97 213.66
    38.3500 14.26 203.47 188.89
    38.3600 13.10 171.69 174.67
    38.3700 13.01 169.23 167.20
    38.3800 12.22 149.42 163.72
    38.3900 12.57 158.09 162.58
    38.4000 13.29 176.67 163.08
    38.4100 12.82 164.28 165.28
    38.4200 12.66 160.16 169.29
    38.4300 13.55 183.67 174.26
    38.4400 12.80 163.86 178.04
    38.4500 13.37 178.73 177.97
    38.4600 12.87 165.52 173.32
    38.4700 12.72 161.82 167.35
    38.4800 12.51 156.46 162.98
    38.4900 12.59 158.52 160.80
    38.5000 12.99 168.84 160.02
    38.5100 12.64 159.76 159.79
    38.5200 12.52 156.86 159.79
    38.5300 11.93 142.43 159.93
    38.5400 12.38 153.17 160.45
    38.5500 12.39 153.58 161.67
    38.5600 13.04 170.09 163.76
    38.5700 13.06 170.49 166.22
    38.5800 12.52 156.87 167.73
    38.5900 12.16 147.80 167.87
    38.6000 13.74 188.67 168.36
    38.6100 13.57 184.13 172.35
    38.6200 14.08 198.16 185.84
    38.6300 15.66 245.25 217.79
    38.6400 18.12 328.22 269.55
    38.6500 18.84 355.09 321.43
    38.6600 18.94 358.78 337.61
    38.6700 17.66 311.73 308.10
    38.6800 16.29 265.51 256.29
    38.6900 14.81 219.25 209.80
    38.7000 13.36 178.38 181.46
    38.7100 13.01 169.29 168.96
    38.7200 12.82 164.33 165.89
    38.7300 13.00 168.88 167.85
    38.7400 12.53 156.91 171.98
    38.7500 13.12 172.19 174.86
    38.7600 12.90 166.42 173.86
    38.7700 13.12 172.20 170.96
    38.7800 13.19 173.86 170.08
    38.7900 13.09 171.38 173.42
    38.8000 13.23 175.10 182.16
    38.8100 13.87 192.43 197.79
    38.8200 14.34 205.64 218.27
    38.8300 14.70 216.00 232.62
    38.8400 14.24 202.76 229.54
    38.8500 13.33 177.58 210.33
    38.8600 13.47 181.31 187.87
    38.8700 13.06 170.56 172.51
    38.8800 13.29 176.75 166.29
    38.8900 12.49 156.10 168.24
    38.9000 13.83 191.23 179.45
    38.9100 14.34 205.67 201.41
    38.9200 15.06 226.75 229.12
    38.9300 16.10 259.36 248.16
    38.9400 15.25 232.54 246.78
    38.9500 14.95 223.46 230.73
    38.9600 13.95 194.53 210.58
    38.9700 13.84 191.66 190.66
    38.9800 13.19 173.90 175.01
    38.9900 12.77 163.16 165.45
    39.0000 11.99 143.75 161.17
    39.0100 12.53 156.97 160.17
    39.0200 12.51 156.56 161.15
    39.0300 12.89 166.06 163.04
    39.0400 12.41 154.08 164.44
    39.0500 12.87 165.65 164.15
    39.0600 13.23 175.15 163.30
    39.0700 12.93 167.31 164.74
    39.0800 13.11 171.85 170.44
    39.0900 13.08 171.02 179.78
    39.1000 13.95 194.57 187.93
    39.1100 14.21 202.01 190.49
    39.1200 14.23 202.45 190.09
    39.1300 14.56 211.95 191.41
    39.1400 14.37 206.59 191.95
    39.1500 14.14 199.96 185.99
    39.1600 12.81 164.02 175.70
    39.1700 13.51 182.61 167.24
    39.1800 13.20 174.34 164.05
    39.1900 13.33 177.66 167.10
    39.2000 12.95 167.74 176.75
    39.2100 13.92 193.80 190.88
    39.2200 13.97 195.03 202.38
    39.2300 14.59 212.81 203.95
    39.2400 14.36 206.19 200.31
    39.2500 14.26 203.31 204.21
    39.2600 15.03 226.04 224.32
    39.2700 15.36 235.96 256.34
    39.2800 15.99 255.79 282.34
    39.2900 15.89 252.50 288.26
    39.3000 15.99 255.79 283.78
    39.3100 15.46 238.86 275.36
    39.3200 14.55 211.58 253.02
    39.3300 15.08 227.28 219.61
    39.3400 13.62 185.55 190.88
    39.3500 14.11 199.19 175.84
    39.3600 13.03 169.86 175.53
    39.3700 14.91 222.35 191.09
    39.3800 16.20 262.46 227.21
    39.3900 18.08 326.95 285.19
    39.4000 18.22 331.91 351.08
    39.4100 19.51 380.66 396.24
    39.4200 19.06 363.31 389.98
    39.4300 17.43 303.80 335.88
    39.4400 16.74 280.22 276.27
    39.4500 15.25 232.68 234.53
    39.4600 14.66 214.93 209.00
    39.4700 14.86 220.71 194.72
    39.4800 13.95 194.71 186.96
    39.4900 13.49 181.89 179.98
    39.5000 13.56 183.96 172.08
    39.5100 13.58 184.38 165.83
    39.5200 12.89 166.18 163.41
    39.5300 12.50 156.27 166.23
    39.5400 13.84 191.41 176.99
    39.5500 13.65 186.45 199.56
    39.5600 13.73 188.52 232.48
    39.5700 14.42 207.97 260.55
    39.5800 13.21 174.47 259.86
    39.5900 14.19 201.34 230.05
    39.6000 13.11 171.99 195.47
    39.6100 13.02 169.51 172.78
    39.6200 12.84 164.97 163.34
    39.6300 12.44 154.64 161.72
    39.6400 12.78 163.32 162.66
    39.6500 12.39 153.39 162.76
    39.6600 12.83 164.55 161.09
    39.6700 12.30 151.33 158.58
    39.6800 12.89 166.22 156.64
    39.6900 12.25 150.09 155.91
    39.7000 12.99 168.70 156.82
    39.7100 12.37 153.00 160.76
    39.7200 13.00 169.12 169.86
    39.7300 12.83 164.58 183.84
    39.7400 13.85 191.88 196.40
    39.7500 13.57 184.02 197.31
    39.7600 12.99 168.72 185.73
    39.7700 12.70 161.27 171.14
    39.7800 12.45 155.08 160.93
    39.7900 12.60 158.79 156.08
    39.8000 12.93 167.06 154.35
    39.8100 12.65 160.04 153.90
    39.8200 12.45 155.09 154.02
    39.8300 13.50 182.38 154.75
    39.8400 13.32 177.42 156.09
    39.8500 14.13 199.76 157.72
    39.8600 13.70 187.78 159.29
    39.8700 13.54 183.22 161.64
    39.8800 13.47 181.57 166.21
    39.8900 12.86 165.43 171.76
    39.9000 12.72 161.72 173.78
    39.9100 12.49 155.95 169.71
    39.9200 12.96 167.93 163.57
    39.9300 12.62 159.24 160.21
    39.9400 13.20 174.13 162.68
    39.9500 13.44 180.75 172.34
    39.9600 13.37 178.69 187.60
    39.9700 13.67 186.97 201.33
    39.9800 13.70 187.81 203.93
    39.9900 13.48 181.61 192.77
    40.0000 13.35 178.29 176.24
    40.0100 13.04 170.02 163.47
    40.0200 12.42 154.30 156.74
    40.0300 12.52 156.78 154.35
    40.0400 12.30 151.41 154.41
    40.0500 12.70 161.33 156.81
    40.0600 12.39 153.48 162.34
    40.0700 12.59 158.45 170.16
    40.0800 13.20 174.18 175.92
    40.0900 12.74 162.19 174.49
    40.1000 12.88 165.90 167.36
    40.1100 13.01 169.22 160.47
    40.1200 12.22 149.36 157.23
    40.1300 12.09 146.05 157.49
    40.1400 12.12 146.88 159.09
    40.1500 12.14 147.30 159.57
    40.1600 12.29 151.03 158.07
    40.1700 12.39 153.51 155.57
    40.1800 11.91 141.93 153.42
    40.1900 12.65 160.14 152.17
    40.2000 12.70 161.37 151.63
    40.2100 12.52 156.83 151.45
    40.2200 11.76 138.22 151.41
    40.2300 11.74 137.80 151.43
    40.2400 12.09 146.07 151.56
    40.2500 12.26 150.21 151.71
    40.2600 12.03 144.83 151.98
    40.2700 13.06 170.49 152.50
    40.2800 12.59 158.49 153.88
    40.2900 13.15 172.97 158.00
    40.3000 13.57 184.16 168.87
    40.3100 14.09 198.62 190.70
    40.3200 15.37 236.30 220.86
    40.3300 15.29 233.81 244.33
    40.3400 15.52 240.85 242.74
    40.3500 14.82 219.76 218.16
    40.3600 14.50 210.25 189.15
    40.3700 13.33 177.56 169.00
    40.3800 13.53 182.94 159.99
    40.3900 12.95 167.61 159.81
    40.4000 13.51 182.52 167.71
    40.4100 13.49 182.10 183.35
    40.4200 14.71 216.45 200.88
    40.4300 14.67 215.23 207.76
    40.4400 14.21 201.97 197.20
    40.4500 13.53 182.94 178.70
    40.4600 13.01 169.30 163.74
    40.4700 12.34 152.33 155.77
    40.4800 11.90 141.57 152.72
    40.4900 12.74 162.27 151.78
    40.5000 12.67 160.61 151.56
    40.5100 13.12 172.20 151.74
    40.5200 12.31 151.49 152.65
    40.5300 12.17 148.20 155.77
    40.5400 13.00 168.90 163.97
    40.5500 13.75 189.20 179.46
    40.5600 14.11 199.12 198.85
    40.5700 14.78 218.58 211.13
    40.5800 13.98 195.41 207.71
    40.5900 13.68 187.12 195.74
    40.6000 13.99 195.81 184.77
    40.6100 12.24 149.86 177.25
    40.6200 13.06 170.56 173.39
    40.6300 13.42 180.08 171.72
    40.6400 13.28 176.37 168.58
    40.6500 13.12 172.24 163.15
    40.6600 12.77 163.13 158.55
    40.6700 13.01 169.33 157.60
    40.6800 13.19 173.89 161.72
    40.6900 13.42 180.12 169.98
    40.7000 13.31 177.21 178.99
    40.7100 13.19 173.91 184.82
    40.7200 14.13 199.58 188.67
    40.7300 15.16 229.81 194.74
    40.7400 13.97 195.03 199.90
    40.7500 15.48 239.76 196.60
    40.7600 13.28 176.39 186.54
    40.7700 13.42 180.14 179.81
    40.7800 13.95 194.63 181.61
    40.7900 13.36 178.48 188.57
    40.8000 13.77 189.67 194.03
    40.8100 13.61 185.12 193.62
    40.8200 13.41 179.74 187.38
    40.8300 12.45 154.90 180.09
    40.8400 12.77 163.17 173.12
    40.8500 12.79 163.59 165.73
    40.8600 12.89 166.07 159.89
    40.8700 12.61 159.04 158.78
    40.8800 12.98 168.56 165.93
    40.8900 13.70 187.62 183.86
    40.9000 14.07 197.98 208.77
    40.9100 15.08 227.39 226.16
    40.9200 14.70 216.20 220.73
    40.9300 13.98 195.49 198.57
    40.9400 13.03 169.81 177.69
    40.9500 13.10 171.48 166.57
    40.9600 12.92 166.91 162.24
    40.9700 12.55 157.40 158.87
    40.9800 12.64 159.88 155.00
    40.9900 12.63 159.48 151.84
    41.0000 12.46 155.32 150.06
    41.0100 12.40 153.69 149.33
    41.0200 11.94 142.50 149.13
    41.0300 11.97 143.32 149.19
    41.0400 12.45 154.93 149.49
    41.0500 12.01 144.16 150.43
    41.0600 12.35 152.45 153.37
    41.0700 12.45 154.95 161.01
    41.0800 13.28 176.49 176.45
    41.0900 13.89 193.07 198.95
    41.1000 14.42 207.98 219.79
    41.1100 15.25 232.42 227.48
    41.1200 15.22 231.58 220.07
    41.1300 14.46 209.23 206.39
    41.1400 14.80 219.18 196.39
    41.1500 14.49 210.07 189.22
    41.1600 13.24 175.26 179.24
    41.1700 12.15 147.51 168.71
    41.1800 13.19 174.03 163.64
    41.1900 13.18 173.62 166.86
    41.2000 12.60 158.70 175.54
    41.2100 12.94 167.41 181.80
    41.2200 12.76 162.85 178.58
    41.2300 12.45 154.97 169.05
    41.2400 12.92 167.00 161.53
    41.2500 12.10 146.29 160.70
    41.2600 12.63 159.55 166.25
    41.2700 13.52 182.75 172.99
    41.2800 12.79 163.68 173.95
    41.2900 12.65 159.96 167.65
    41.3000 13.07 170.73 159.78
    41.3100 12.84 164.94 154.72
    41.3200 13.15 172.80 152.76
    41.3300 12.57 157.90 151.93
    41.3400 12.48 155.83 150.98
    41.3500 12.37 152.93 150.10
    41.3600 12.78 163.28 149.70
    41.3700 12.25 150.03 149.70
    41.3800 12.37 152.94 149.80
    41.3900 12.86 165.37 149.98
    41.4000 12.23 149.62 150.71
    41.4100 11.69 136.77 153.57
    41.4200 13.00 169.09 162.27
    41.4300 13.70 187.75 181.96
    41.4400 14.22 202.24 212.79
    41.4500 14.92 222.57 241.53
    41.4600 14.62 213.86 245.39
    41.4700 14.68 215.52 220.54
    41.4800 12.79 163.71 188.60
    41.4900 12.63 159.57 166.20
    41.5000 12.94 167.46 155.74
    41.5100 13.05 170.35 152.72
    41.5200 11.80 139.27 154.09
    41.5300 12.42 154.19 160.64
    41.5400 13.46 181.13 174.77
    41.5500 13.32 177.40 195.07
    41.5600 14.02 196.47 212.41
    41.5700 13.15 172.84 214.97
    41.5800 13.55 183.62 203.43
    41.5900 12.78 163.31 185.71
    41.6000 12.84 164.97 169.19
    41.6100 12.47 155.44 158.17
    41.6200 13.33 177.82 152.77
    41.6300 12.78 163.32 151.33
    41.6400 12.62 159.17 152.47
    41.6500 12.55 157.52 155.11
    41.6600 13.48 181.58 157.45
    41.6700 12.28 150.91 157.51
    41.6800 12.97 168.32 155.73
    41.6900 13.01 169.16 154.65
    41.7000 12.94 167.49 155.55
    41.7100 12.88 165.83 157.29
    41.7200 12.97 168.32 157.54
    41.7300 12.86 165.44 155.54
    41.7400 12.18 148.44 152.69
    41.7500 12.70 161.29 150.57
    41.7600 11.89 141.39 149.88
    41.7700 12.35 152.59 151.03
    41.7800 12.62 159.23 154.55
    41.7900 12.88 165.86 160.10
    41.8000 12.44 154.66 165.21
    41.8100 12.67 160.48 165.70
    41.8200 12.24 149.70 161.23
    41.8300 12.62 159.23 155.96
    41.8400 12.37 153.01 153.31
    41.8500 12.27 150.54 155.03
    41.8600 13.02 169.61 162.08
    41.8700 12.72 161.73 174.38
    41.8800 13.31 177.07 187.58
    41.8900 13.87 192.42 192.91
    41.9000 14.11 199.05 185.53
    41.9100 14.39 206.94 171.85
    41.9200 13.31 177.10 160.29
    41.9300 12.91 166.72 154.35
    41.9400 13.56 183.75 153.75
    41.9500 13.42 179.99 157.66
    41.9600 12.93 167.15 164.85
    41.9700 12.80 163.82 171.55
    41.9800 12.96 167.97 172.26
    41.9900 13.15 172.96 166.44
    42.0000 13.04 170.05 159.73
    42.0100 13.36 178.37 157.14
    42.0200 13.10 171.73 161.44
    42.0300 13.36 178.38 173.05
    42.0400 14.11 199.12 188.84
    42.0500 14.77 218.19 200.89
    42.0600 13.66 186.66 203.23
    42.0700 14.55 211.56 199.30
    42.0800 14.18 201.21 191.32
    42.0900 13.06 170.51 178.90
    42.1000 13.07 170.92 166.38
    42.1100 13.18 173.83 157.93
    42.1200 13.03 169.66 154.65
    42.1300 12.29 151.01 156.69
    42.1400 13.68 187.11 166.26
    42.1500 12.93 167.18 186.41
    42.1600 14.84 220.31 213.79
    42.1700 14.90 221.98 233.18
    42.1800 13.83 191.27 227.88
    42.1900 13.48 181.73 205.11
    42.2000 13.28 176.33 185.13
    42.2100 12.82 164.30 176.95
    42.2200 12.80 163.89 175.55
    42.2300 12.54 157.25 171.84
    42.2400 13.09 171.37 164.54
    42.2500 12.47 155.61 157.53
    42.2600 11.84 140.26 153.37
    42.2700 12.47 155.61 151.81
    42.2800 12.92 166.83 151.98
    42.2900 12.49 156.03 153.97
    42.3000 12.95 167.66 159.42
    42.3100 13.54 183.45 171.15
    42.3200 14.29 204.20 191.71
    42.3300 14.87 221.21 219.60
    42.3400 15.79 249.43 246.71
    42.3500 16.04 257.31 258.36
    42.3600 15.43 238.23 244.73
    42.3700 15.20 231.17 217.71
    42.3800 14.30 204.61 191.25
    42.3900 13.31 177.23 171.59
    42.4000 12.54 157.30 159.87
    42.4100 12.56 157.73 154.05
    42.4200 12.69 161.06 151.59
    42.4300 12.26 150.27 150.67
    42.4400 12.62 159.39 150.35
    42.4500 12.19 148.61 150.32
    42.4600 11.61 134.90 150.58
    42.4700 12.29 151.09 151.24
    42.4800 12.54 157.33 152.20
    42.4900 12.21 149.02 153.07
    42.5000 12.31 151.51 153.54
    42.5100 12.53 156.91 154.08
    42.5200 13.06 170.61 157.08
    42.5300 12.64 159.82 167.34
    42.5400 14.03 196.78 192.40
    42.5500 15.54 241.60 235.27
    42.5600 16.86 284.36 283.17
    42.5700 16.21 262.79 305.64
    42.5800 14.96 223.77 285.79
    42.5900 14.86 220.86 241.44
    42.6000 13.74 188.90 198.81
    42.6100 12.92 166.89 171.63
    42.6200 12.71 161.50 158.75
    42.6300 12.82 164.41 153.82
    42.6400 12.14 147.39 152.14
    42.6500 12.00 144.06 151.67
    42.6600 12.77 163.17 152.08
    42.6700 12.11 146.56 154.00
    42.6800 12.66 160.27 158.11
    42.6900 12.73 161.93 163.78
    42.7000 12.86 165.26 168.38
    42.7100 13.55 183.52 169.09
    42.7200 12.24 149.89 167.43
    42.7300 13.00 168.99 165.80
    42.7400 12.18 148.24 163.60
    42.7500 12.49 156.12 160.23
    42.7600 12.17 148.23 157.44
    42.7700 12.17 148.23 157.44
    42.7800 12.58 158.20 161.31
    42.7900 12.95 167.76 168.90
    42.8000 13.00 168.99 178.72
    42.8100 13.33 177.72 189.11
    42.8200 13.76 189.36 198.00
    42.8300 14.38 206.80 203.58
    42.8400 14.70 215.95 212.30
    42.8500 15.89 252.48 230.90
    42.8600 16.18 261.64 249.36
    42.8700 15.68 245.85 245.80
    42.8800 14.79 218.88 218.56
    42.8900 13.76 189.39 188.22
    42.9000 13.41 179.83 169.16
    42.9100 12.78 163.22 163.54
    42.9200 12.91 166.54 168.19
    42.9300 13.88 192.71 178.59
    42.9400 13.19 174.03 188.16
    42.9500 13.88 192.72 189.61
    42.9600 13.66 186.49 184.12
    42.9700 13.55 183.59 180.49
    42.9800 13.47 181.52 184.30
    42.9900 13.88 192.73 192.77
    43.0000 13.97 195.23 198.78
    43.0100 14.03 196.91 201.49
    43.0200 14.40 207.27 203.58
    43.0300 14.24 202.71 201.14
    43.0400 13.81 190.67 190.40
    43.0500 13.26 175.72 175.62
    43.0600 12.92 167.00 163.74
    43.0700 13.00 169.07 157.83
    43.0800 13.07 170.75 158.25
    43.0900 12.84 164.94 165.83
    43.1000 13.91 193.60 181.32
    43.1100 14.17 200.66 200.20
    43.1200 13.97 195.27 210.06
    43.1300 14.18 201.08 201.45
    43.1400 13.26 175.75 182.74
    43.1500 12.79 163.68 167.02
    43.1600 12.28 150.81 159.36
    43.1700 12.81 164.12 158.49
    43.1800 12.33 152.06 160.53
    43.1900 12.55 157.47 161.55
    43.2000 12.81 164.12 159.52
    43.2100 12.32 151.66 156.21
    43.2200 12.43 154.57 153.76
    43.2300 12.55 157.47 153.33
    43.2400 12.63 159.55 155.67
    43.2500 12.43 154.56 161.06
    43.2600 13.05 170.35 168.13
    43.2700 12.68 160.79 172.53
    43.2800 12.78 163.29 170.17
    43.2900 12.48 155.82 163.40
    43.3000 13.10 171.62 157.13
    43.3100 12.08 145.85 153.56
    43.3200 12.65 159.98 152.44
    43.3300 12.70 161.24 152.73
    43.3400 12.57 157.92 154.73
    43.3500 13.08 171.21 160.10
    43.3600 13.48 181.61 171.24
    43.3700 13.32 177.45 187.78
    43.3800 13.60 184.91 202.47
    43.3900 14.25 203.20 204.19
    43.4000 13.60 184.94 192.97
    43.4100 13.13 172.47 179.99
    43.4200 12.99 168.73 171.86
    43.4300 13.21 174.57 168.78
    43.4400 13.45 180.81 172.72
    43.4500 14.43 208.25 189.49
    43.4600 16.20 262.28 220.74
    43.4700 17.41 303.01 253.83
    43.4800 16.53 273.08 262.85
    43.4900 15.53 241.08 238.30
    43.5000 14.32 204.93 202.24
    43.5100 12.73 162.12 175.27
    43.5200 13.23 175.02 162.66
    43.5300 13.26 175.85 161.29
    43.5400 13.10 171.68 168.87
    43.5500 13.39 179.16 184.41
    43.5600 13.65 186.24 202.35
    43.5700 14.10 198.72 210.32
    43.5800 13.75 189.15 200.63
    43.5900 13.93 194.14 182.85
    43.6000 13.06 170.45 169.98
    43.6100 13.62 185.42 169.15
    43.6200 14.49 209.95 183.60
    43.6300 15.91 253.19 212.23
    43.6400 16.53 273.15 242.95
    43.6500 16.68 278.15 252.63
    43.6600 15.77 248.62 231.65
    43.6700 14.20 201.66 199.63
    43.6800 13.39 179.21 176.32
    43.6900 12.86 165.49 167.19
    43.7000 12.72 161.74 167.95
    43.7100 13.20 174.22 172.40
    43.7200 13.07 170.90 176.94
    43.7300 12.70 161.32 182.24
    43.7400 13.40 179.61 188.58
    43.7500 14.17 200.83 192.97
    43.7600 13.69 187.53 194.56
    43.7700 14.30 204.60 193.75
    43.7800 14.99 224.57 191.72
    43.7900 14.36 206.26 196.77
    43.8000 15.11 228.32 216.25
    43.8100 15.25 232.47 243.77
    43.8200 16.02 256.60 258.33
    43.8300 15.48 239.55 244.91
    43.8400 14.16 200.47 212.97
    43.8500 14.28 203.79 182.90
    43.8600 12.39 153.46 164.66
    43.8700 12.85 165.13 157.08
    43.8800 13.15 173.04 155.84
    43.8900 12.74 162.22 158.10
    43.9000 12.77 163.07 161.85
    43.9100 13.19 173.87 164.20
    43.9200 12.41 153.91 162.83
    43.9300 12.67 160.55 159.39
    43.9400 12.82 164.31 157.46
    43.9500 13.53 183.02 158.85
    43.9600 13.09 171.38 162.60
    43.9700 12.08 146.02 165.55
    43.9800 12.32 151.84 165.27
    43.9900 13.08 170.99 163.49
    44.0000 13.04 170.15 162.69
    44.0100 12.56 157.67 162.01
    44.0200 12.57 158.10 159.69
    44.0300 12.27 150.62 156.52
    44.0400 12.03 144.79 154.36
    44.0500 11.89 141.46 154.46
    44.0600 13.19 173.92 158.10
    44.0700 13.41 179.73 167.47
    44.0800 14.06 197.64 184.32
    44.0900 14.18 200.98 205.88
    44.1000 14.41 207.62 222.93
    44.1100 15.41 237.59 225.82
    44.1200 14.99 224.68 219.34
    44.1300 13.98 195.55 219.10
    44.1400 14.44 208.46 227.22
    44.1500 14.47 209.29 228.17
    44.1600 13.45 181.01 211.31
    44.1700 13.30 176.86 187.73
    44.1800 12.97 168.11 170.43
    44.1900 13.35 178.10 162.43
    44.2000 13.01 169.36 160.01
    44.2100 12.74 162.30 158.69
    44.2200 12.32 151.89 156.93
    44.2300 12.54 157.30 155.71
    44.2400 12.58 158.15 155.38
    44.2500 12.87 165.64 155.07
    44.2600 12.63 159.41 153.91
    44.2700 11.90 141.50 152.36
    44.2800 12.49 156.07 151.32
    44.2900 12.41 153.98 151.35
    44.3000 12.72 161.90 152.65
    44.3100 12.44 154.83 155.03
    44.3200 12.44 154.83 157.36
    44.3300 12.44 154.82 157.86
    44.3400 12.38 153.17 156.16
    44.3500 12.24 149.84 153.98
    44.3600 12.90 166.49 152.65
    44.3700 12.59 158.59 152.88
    44.3800 12.63 159.42 155.44
    44.3900 13.28 176.48 161.71
    44.4000 13.30 176.91 172.43
    44.4100 14.02 196.48 185.23
    44.4200 13.55 183.57 193.78
    44.4300 14.02 196.46 193.03
    44.4400 13.19 174.00 186.55
    44.4500 13.21 174.41 182.70
    44.4600 13.33 177.73 183.16
    44.4700 13.44 180.65 181.38
    44.4800 12.68 160.68 173.53
    44.4900 12.36 152.78 163.97
    44.5000 12.41 154.01 157.37
    44.5100 12.92 166.94 155.00
    44.5200 12.95 167.75 157.12
    44.5300 12.92 166.93 165.86
    44.5400 13.75 188.99 184.26
    44.5500 15.01 225.22 210.38
    44.5600 15.52 241.02 232.25
    44.5700 15.53 241.04 234.87
    44.5800 14.41 207.75 220.64
    44.5900 14.37 206.50 201.36
    44.6000 13.64 186.08 183.26
    44.6100 12.79 163.61 170.87
    44.6200 13.19 174.01 166.77
    44.6300 12.95 167.78 170.65
    44.6400 13.16 173.19 179.38
    44.6500 12.84 164.87 188.31
    44.6600 12.69 161.13 194.13
    44.6700 12.92 166.95 195.11
    44.6800 12.69 161.13 190.92
    44.6900 12.73 161.96 180.82
    44.7000 12.74 162.38 168.55
    44.7100 12.51 156.55 159.06
    44.7200 12.24 149.91 153.81
    44.7300 11.81 139.49 151.73
    44.7400 12.23 149.49 151.46
    44.7500 11.88 141.16 152.77
    44.7600 11.90 141.57 156.28
    44.7700 12.35 152.41 162.10
    44.7800 12.02 144.50 168.04
    44.7900 12.50 156.15 169.72
    44.8000 12.82 164.48 165.62
    44.8100 12.09 146.17 159.31
    44.8200 12.33 152.01 154.49
    44.8300 12.50 156.16 152.24
    44.8400 12.23 149.50 152.24
    44.8500 13.15 172.83 154.54
    44.8600 12.68 160.75 159.70
    44.8700 13.03 169.91 166.81
    44.8800 13.32 177.40 171.91
    44.8900 11.97 143.25 170.52
    44.9000 12.36 152.84 164.34
    44.9100 13.16 173.26 159.16
    44.9200 13.40 179.51 158.66
    44.9300 12.46 155.35 163.43
    44.9400 13.44 180.75 170.97
    44.9500 13.93 194.10 176.12
    44.9600 13.86 192.02 174.74
    44.9700 12.83 164.54 168.40
    44.9800 12.79 163.70 161.97
    44.9900 12.88 165.77 157.83
    45.0000 13.21 174.54 155.52
    45.0100 12.47 155.38 154.45
    45.0200 12.21 149.13 154.13
    45.0300 12.13 147.05 153.90
    45.0400 12.36 152.89 153.32
    45.0500 13.01 169.15 152.75
    45.0600 13.05 170.40 152.59
    45.0700 12.52 156.65 152.90
    45.0800 13.07 170.81 154.30
    45.0900 13.59 184.57 158.90
    45.1000 13.92 193.74 170.14
    45.1100 13.84 191.66 190.38
    45.1200 14.79 218.73 215.90
    45.1300 15.17 229.99 234.85
    45.1400 15.00 224.99 236.41
    45.1500 15.03 225.85 223.90
    45.1600 15.03 225.85 211.50
    45.1700 13.72 188.35 204.71
    45.1800 13.46 181.27 196.07
    45.1900 13.69 187.51 181.73
    45.2000 12.67 160.44 167.43
    45.2100 12.97 168.35 157.92
    45.2200 12.93 167.11 153.37
    45.2300 12.48 155.86 151.84
    45.2400 12.33 152.09 151.93
    45.2500 12.85 165.02 153.71
    45.2600 12.97 168.35 158.01
    45.2700 13.62 185.44 164.76
    45.2800 14.05 197.53 171.18
    45.2900 12.93 167.11 172.82
    45.3000 13.79 190.05 169.24
    45.3100 12.96 167.96 164.20
    45.3200 12.85 165.04 160.18
    45.3300 13.09 171.30 158.97
    45.3400 13.14 172.57 162.42
    45.3500 13.18 173.80 170.49
    45.3600 13.94 194.24 179.09
    45.3700 13.37 178.82 181.09
    45.3800 12.90 166.31 174.71
    45.3900 13.40 179.66 165.70
    45.4000 12.65 160.07 158.90
    45.4100 12.77 162.98 155.73
    45.4200 12.95 167.58 155.65
    45.4300 12.90 166.33 157.82
    45.4400 13.07 170.90 161.50
    45.4500 13.33 177.59 165.15
    45.4600 12.72 161.74 167.22
    45.4700 13.12 172.17 167.91
    45.4800 12.86 165.50 167.54
    45.4900 12.57 157.99 165.95
    45.5000 12.77 163.01 164.03
    45.5100 12.50 156.34 162.14
    45.5200 12.35 152.58 159.14
    45.5300 12.10 146.34 155.40
    45.5400 12.06 145.51 152.28
    45.5500 11.91 141.75 150.44
    45.5600 12.22 149.26 149.63
    45.5700 12.13 147.18 149.33
    45.5800 12.37 153.02 149.23
    45.5900 12.30 151.35 149.21
    45.6000 11.84 140.10 149.24
    45.6100 12.17 148.03 149.29
    45.6200 11.73 137.60 149.42
    45.6300 11.73 137.60 149.60
    45.6400 12.64 159.70 149.97
    45.6500 12.34 152.20 150.73
    45.6600 12.88 165.97 152.64
    45.6700 12.47 155.54 157.08
    45.6800 13.31 177.22 165.42
    45.6900 13.19 173.90 177.39
    45.7000 13.47 181.39 188.80
    45.7100 13.20 174.31 192.68
    45.7200 13.03 169.73 184.96
    45.7300 13.38 178.90 171.77
    45.7400 12.08 145.95 160.99
    45.7500 13.12 172.24 155.34
    45.7600 12.64 159.72 154.10
    45.7700 12.27 150.56 156.75
    45.7800 12.87 165.57 164.39
    45.7900 13.47 181.42 177.24
    45.8000 13.38 178.93 190.53
    45.8100 14.22 202.28 194.51
    45.8200 13.94 194.36 185.31
    45.8300 13.42 180.17 171.42
    45.8400 13.73 188.51 160.91
    45.8500 12.52 156.83 156.06
    45.8600 12.37 153.09 155.81
    45.8700 12.42 154.34 159.18
    45.8800 13.28 176.43 165.56
    45.8900 13.14 172.70 173.31
    45.9000 13.70 187.70 179.85
    45.9100 13.30 176.87 184.85
    45.9200 14.00 196.05 189.19
    45.9300 13.84 191.46 191.08
    45.9400 14.24 202.72 189.88
    45.9500 14.08 198.14 190.70
    45.9600 14.03 196.90 197.56
    45.9700 14.17 200.65 207.77
    45.9800 14.03 196.91 218.24
    45.9900 15.04 226.11 230.87
    46.0000 14.86 220.70 241.02
    46.0100 14.37 206.51 237.63
    46.0200 14.54 211.51 220.29
    46.0300 13.85 191.90 198.77
    46.0400 13.13 172.31 180.98
    46.0500 14.12 199.44 168.82
    46.0600 13.08 171.06 161.09
    46.0700 13.19 174.00 156.60
    46.0800 12.64 159.80 154.33
    46.0900 12.36 152.71 153.38
    46.1000 12.32 151.89 153.10
    46.1100 12.56 157.73 153.37
    46.1200 12.98 168.57 154.72
    46.1300 13.18 173.59 158.47
    46.1400 13.69 187.37 165.89
    46.1500 13.32 177.36 175.70
    46.1600 13.52 182.78 182.53
    46.1700 13.46 181.12 180.24
    46.1800 12.94 167.36 171.24
    46.1900 13.47 181.55 162.46
    46.2000 12.46 155.25 157.29
    46.2100 12.38 153.18 155.21
    46.2200 12.73 161.93 154.42
    46.2300 12.33 151.92 153.99
    46.2400 12.51 156.51 154.10
    46.2500 12.61 159.01 155.60
    46.2600 12.73 161.95 159.70
    46.2700 13.43 180.32 166.88
    46.2800 13.00 169.05 174.83
    46.2900 13.61 185.34 178.13
    46.3000 13.49 182.00 173.72
    46.3100 12.68 160.71 166.22
    46.3200 12.63 159.46 161.22
    46.3300 12.38 153.21 161.02
    46.3400 13.03 169.89 164.66
    46.3500 13.15 172.83 168.83
    46.3600 12.28 150.70 169.43
    46.3700 12.84 164.91 166.13
    46.3800 12.71 161.55 163.31
    46.3900 12.79 163.65 165.11
    46.4000 13.71 187.85 173.25
    46.4100 13.84 191.63 185.24
    46.4200 13.60 184.96 194.24
    46.4300 13.98 195.39 194.81
    46.4400 13.46 181.18 190.09
    46.4500 13.99 195.80 183.93
    46.4600 13.07 170.76 177.86
    46.4700 13.54 183.29 175.39
    46.4800 13.45 180.80 178.29
    46.4900 13.72 188.32 182.73
    46.5000 12.73 162.01 181.61
    46.5100 12.96 167.87 174.04
    46.5200 12.65 159.94 165.82
    46.5300 12.46 155.34 161.21
    46.5400 13.12 172.04 160.60
    46.5500 12.68 160.77 161.92
    46.5600 12.73 162.01 162.58
    46.5700 13.04 169.97 161.87
    46.5800 12.71 161.60 162.08
    46.5900 12.63 159.51 166.62
    46.6000 13.65 186.24 177.85
    46.6100 13.78 190.01 194.76
    46.6200 13.99 195.86 210.73
    46.6300 14.72 216.75 216.96
    46.6400 14.78 218.41 211.76
    46.6500 13.89 192.94 198.58
    46.6600 13.85 191.69 183.68
    46.6700 13.09 171.23 174.67
    46.6800 13.89 192.95 176.37
    46.6900 14.47 209.25 189.36
    46.7000 14.13 199.64 207.65
    46.7100 14.74 217.19 217.99
    46.7200 14.03 196.73 210.37
    46.7300 13.89 192.97 191.64
    46.7400 13.63 185.86 174.03
    46.7500 12.78 163.31 163.30
    46.7600 12.28 150.79 158.74
    46.7700 12.48 155.80 157.67
    46.7800 12.31 151.63 158.05
    46.7900 12.47 155.40 158.75
    46.8000 12.68 160.84 159.51
    46.8100 12.31 151.65 161.09
    46.8200 12.58 158.33 163.94
    46.8300 13.04 170.03 166.59
    46.8400 12.91 166.69 166.42
    46.8500 12.83 164.60 163.38
    46.8600 12.93 167.10 159.97
    46.8700 12.89 166.26 158.08
    46.8800 13.32 177.55 158.60
    46.8900 13.29 176.71 162.35
    46.9000 13.43 180.48 169.72
    46.9100 13.40 179.65 178.69
    46.9200 13.65 186.32 183.71
    46.9300 13.65 186.33 180.87
    46.9400 13.37 178.82 174.83
    46.9500 13.67 186.74 171.93
    46.9600 13.12 172.13 173.12
    46.9700 13.62 185.50 174.15
    46.9800 13.12 172.15 171.24
    46.9900 12.75 162.54 166.10
    47.0000 12.90 166.30 161.90
    47.0100 12.86 165.47 159.43
    47.0200 12.85 165.05 158.22
    47.0300 12.55 157.52 158.13
    47.0400 13.14 172.58 159.55
    47.0500 13.02 169.65 162.43
    47.0600 12.35 152.52 165.58
    47.0700 13.12 172.16 166.61
    47.0800 12.85 165.07 164.85
    47.0900 12.77 162.98 162.74
    47.1000 12.94 167.57 162.85
    47.1100 12.90 166.32 166.37
    47.1200 13.15 172.99 173.38
    47.1300 14.04 197.26 183.20
    47.1400 14.07 198.09 194.06
    47.1500 12.83 164.67 200.76
    47.1600 13.71 188.07 197.62
    47.1700 13.11 171.77 186.96
    47.1800 13.80 190.57 177.81
    47.1900 13.48 181.81 176.54
    47.2000 13.74 188.90 183.07
    47.2100 13.51 182.64 191.57
    47.2200 13.90 193.09 194.81
    47.2300 14.21 201.87 190.29
    47.2400 13.48 181.82 181.91
    47.2500 13.19 173.87 173.89
    47.2600 13.20 174.29 167.15
    47.2700 12.90 166.36 162.20
    47.2800 12.42 154.22 159.23
    47.2900 12.90 166.35 157.83
    47.3000 12.83 164.68 157.46
    47.3100 12.52 156.74 157.58
    47.3200 12.32 151.73 157.89
    47.3300 12.37 152.99 158.34
    47.3400 13.12 172.22 159.59
    47.3500 12.54 157.18 162.59
    47.3600 12.54 157.18 167.41
    47.3700 12.47 155.50 171.88
    47.3800 12.74 162.19 172.41
    47.3900 12.49 155.93 168.44
    47.4000 12.32 151.74 163.37
    47.4100 13.36 178.51 159.78
    47.4200 12.67 160.53 158.12
    47.4300 11.99 143.82 157.64
    47.4400 12.75 162.63 157.84
    47.4500 12.82 164.31 158.78
    47.4600 12.22 149.26 160.92
    47.4700 12.85 165.15 164.67
    47.4800 12.80 163.90 169.44
    47.4900 13.14 172.66 173.17
    47.5000 12.65 160.13 173.49
    47.5100 12.88 165.98 170.93
    47.5200 12.62 159.28 169.98
    47.5300 13.17 173.50 175.25
    47.5400 13.44 180.63 187.94
    47.5500 14.57 212.40 203.05
    47.5600 13.76 189.41 210.40
    47.5700 14.15 200.27 204.90
    47.5800 13.41 179.79 195.16
    47.5900 13.73 188.57 189.67
    47.6000 13.38 178.97 188.90
    47.6100 13.39 179.38 187.64
    47.6200 13.78 189.83 182.59
    47.6300 13.41 179.81 177.66
    47.6400 13.21 174.38 177.27
    47.6500 13.64 186.10 181.18
    47.6600 13.53 183.16 185.41
    47.6700 13.09 171.45 185.96
    47.6800 13.28 176.48 180.82
    47.6900 12.93 167.29 172.91
    47.7000 12.62 159.34 166.82
    47.7100 12.72 161.85 165.12
    47.7200 13.27 176.09 168.94
    47.7300 13.41 179.85 178.52
    47.7400 13.47 181.52 191.00
    47.7500 13.89 192.82 199.02
    47.7600 13.57 184.03 195.48
    47.7700 13.30 176.93 183.52
    47.7800 12.67 160.62 171.73
    47.7900 12.61 158.95 164.40
    47.8000 12.94 167.32 161.19
    47.8100 12.85 165.22 160.19
    47.8200 12.46 155.18 160.05
    47.8300 12.52 156.85 160.33
    47.8400 12.42 154.36 161.17
    47.8500 13.03 169.84 163.66
    47.8600 13.03 169.84 170.57
    47.8700 14.68 215.42 185.80
    47.8800 15.41 237.59 209.93
    47.8900 15.51 240.52 233.91
    47.9000 15.86 251.42 240.47
    47.9100 15.83 250.56 225.39
    47.9200 14.42 207.90 206.26
    47.9300 14.69 215.87 198.10
    47.9400 14.30 204.58 202.11
    47.9500 14.72 216.70 209.04
    47.9600 14.90 222.14 208.28
    47.9700 13.68 187.01 198.22
    47.9800 13.58 184.49 186.10
    47.9900 13.33 177.80 178.41
    48.0000 13.47 181.56 177.71
    48.0100 13.21 174.45 181.86
    48.0200 13.89 192.88 185.97
    48.0300 13.99 195.80 187.93
    48.0400 13.57 184.08 192.11
    48.0500 13.99 195.81 200.99
    48.0600 14.52 210.88 209.12
    48.0700 14.36 206.27 208.24
    48.0800 13.44 180.76 198.09
    48.0900 13.02 169.46 184.35
    48.1000 12.58 158.16 172.67
    48.1100 12.74 162.36 165.48
    48.1200 11.95 142.69 162.04
    48.1300 12.95 167.80 160.79
    48.1400 12.78 163.21 160.62
    48.1500 12.73 161.95 160.97
    48.1600 12.43 154.42 161.50
    48.1700 12.71 161.53 162.03
    48.1800 12.89 166.14 162.89
    48.1900 12.76 162.79 164.39
    48.2000 12.46 155.26 165.85
    48.2100 12.73 161.96 165.82
    48.2200 12.82 164.47 164.12
    48.2300 12.15 147.74 162.15
    48.2400 11.77 138.53 160.92
    48.2500 12.63 159.47 160.68
    48.2600 12.43 154.46 160.83
    48.2700 12.51 156.57 160.80
    48.2800 12.69 161.16 160.48
    48.2900 12.63 159.49 160.18
    48.3000 12.58 158.23 160.11
    48.3100 12.10 146.52 160.58
    48.3200 12.71 161.58 161.89
    48.3300 12.34 152.38 164.55
    48.3400 12.70 161.18 169.23
    48.3500 13.91 193.41 176.74
    48.3600 13.07 170.80 187.32
    48.3700 13.63 185.88 198.36
    48.3800 14.18 200.95 202.09
    48.3900 13.88 192.58 193.93
    48.4000 12.68 160.77 180.90
    48.4100 12.60 158.68 171.21
    48.4200 12.78 163.28 167.80
    48.4300 13.29 176.68 169.13
    48.4400 12.46 155.33 171.53
    48.4500 13.04 169.99 171.35
    48.4600 12.63 159.53 168.02
    48.4700 12.66 160.36 164.10
    48.4800 12.17 148.22 161.38
    48.4900 12.84 164.97 160.04
    48.5000 13.09 171.25 159.53
    48.5100 12.68 160.80 159.40
    48.5200 12.58 158.28 159.51
    48.5300 12.91 166.66 160.00
    48.5400 12.60 158.71 161.08
    48.5500 13.14 172.53 162.62
    48.5600 12.46 155.36 163.87
    48.5700 12.66 160.39 163.83
    48.5800 12.62 159.14 162.74
    48.5900 12.96 167.92 161.93
    48.6000 12.93 167.10 162.42
    48.6100 12.63 159.57 164.29
    48.6200 13.07 170.87 166.65
    48.6300 13.17 173.40 167.76
    48.6400 12.57 157.90 166.48
    48.6500 13.06 170.45 163.92
    48.6600 12.52 156.63 161.82
    48.6700 13.18 173.79 160.96
    48.6800 12.60 158.73 161.45
    48.6900 12.75 162.51 163.12
    48.7000 13.34 178.01 165.49
    48.7100 13.18 173.83 167.57
    48.7200 12.73 162.10 169.13
    48.7300 13.50 182.18 172.51
    48.7400 13.51 182.62 180.17
    48.7500 13.80 190.57 192.52
    48.7600 13.62 185.55 206.71
    48.7700 14.02 196.43 218.03
    48.7800 13.98 195.58 221.07
    48.7900 14.08 198.11 210.82
    48.8000 13.18 173.83 192.67
    48.8100 13.15 172.99 176.66
    48.8200 13.15 172.99 167.13
    48.8300 12.86 165.45 163.15
    48.8400 12.75 162.54 162.54
    48.8500 12.96 167.98 164.11
    48.8600 12.72 161.69 167.50
    48.8700 12.90 166.32 171.54
    48.8800 12.93 167.17 173.69
    48.8900 13.04 170.10 172.86
    48.9000 13.79 190.20 172.19
    48.9100 13.03 169.69 175.48
    48.9200 13.50 182.25 182.84
    48.9300 13.50 182.26 189.40
    48.9400 14.06 197.77 189.05
    48.9500 13.22 174.70 183.02
    48.9600 13.47 181.41 177.54
    48.9700 13.14 172.62 175.34
    48.9800 13.38 178.92 174.59
    48.9900 13.08 170.96 174.13
    49.0000 12.70 161.32 176.62
    49.0100 14.03 196.92 184.97
    49.0200 13.69 187.28 198.98
    49.0300 14.40 207.42 214.81
    49.0400 14.27 203.64 227.42
    49.0500 15.30 234.24 234.23
    49.0600 14.52 210.78 231.28
    49.0700 14.30 204.50 214.87
    49.0800 13.53 183.12 193.30
    49.0900 13.12 172.23 176.42
    49.1000 12.78 163.44 167.14
    49.1100 13.31 177.26 163.46
    49.1200 12.54 157.15 162.86
    49.1300 12.83 164.70 164.64
    49.1400 13.44 180.62 170.13
    49.1500 13.75 189.02 180.51
    49.1600 13.93 194.05 193.62
    49.1700 13.67 186.92 202.26
    49.1800 14.42 207.86 200.05
    49.1900 13.69 187.36 190.95
    49.2000 13.59 184.82 182.60
    49.2100 13.55 183.58 178.31
    49.2200 13.76 189.45 178.95
    49.2300 14.26 203.29 185.13
    49.2400 13.72 188.20 194.24
    49.2500 15.13 228.84 200.43
    49.2600 14.68 215.45 200.42
    49.2700 14.65 214.59 196.92
    49.2800 14.52 210.84 193.73
    49.2900 14.61 213.35 190.29
    49.3000 14.82 219.64 185.43
    49.3100 14.56 212.11 179.44
    49.3200 13.83 191.15 174.69
    49.3300 14.16 200.39 172.60
    49.3400 13.86 191.99 171.57
    49.3500 12.37 153.01 169.66
    49.3600 12.34 152.18 167.45
    49.3700 12.80 163.92 165.90
    49.3800 13.08 171.03 164.96
    49.3900 12.52 156.79 164.88
    49.4000 12.42 154.27 166.32
    49.4100 12.87 165.59 168.73
    49.4200 13.25 175.66 170.10
    49.4300 13.08 171.06 168.96
    49.4400 12.85 165.19 166.92
    49.4500 12.90 166.45 165.82
    49.4600 12.10 146.32 165.47
    49.4700 12.92 166.88 164.57
    49.4800 12.40 153.87 162.96
    49.4900 12.84 164.77 161.57
    49.5000 13.02 169.40 160.96
    49.5100 12.84 164.79 161.42
    49.5200 13.63 185.76 163.82
    49.5300 13.21 174.43 170.39
    49.5400 13.83 191.20 184.16
    49.5500 14.81 219.30 205.18
    49.5600 14.67 215.11 226.43
    49.5700 15.39 236.92 236.08
    49.5800 15.47 239.45 232.50
    49.5900 15.97 254.96 224.22
    49.6000 15.45 238.60 213.09
    49.6100 15.06 226.88 200.11
    49.6200 15.12 228.56 190.67
    49.6300 14.14 200.05 186.03
    49.6400 13.08 171.10 182.39
    49.6500 12.85 165.22 176.91
    49.6600 13.87 192.50 170.96
    49.6700 13.55 183.69 167.06
    49.6800 13.52 182.86 166.23
    49.6900 13.38 179.09 167.96
    49.7000 12.77 163.15 170.46
    49.7100 13.38 179.10 171.92
    49.7200 13.40 179.51 173.34
    49.7300 13.16 173.21 177.18
    49.7400 13.54 183.29 182.64
    49.7500 13.08 171.13 184.89
    49.7600 13.22 174.90 181.10
    49.7700 13.68 187.08 174.93
    49.7800 13.95 194.63 169.78
    49.7900 12.89 166.10 166.11
    49.8000 12.82 164.43 163.87
    49.8100 12.37 153.11 163.26
    49.8200 13.29 176.60 164.25
    49.8300 12.76 162.75 166.56
    49.8400 12.87 165.69 169.88
    49.8500 12.72 161.92 173.01
    49.8600 13.13 172.43 173.73
    49.8700 13.40 179.56 171.17
    49.8800 13.11 172.00 167.29
    49.8900 12.27 150.62 163.98
    49.9000 12.61 159.03 161.59
    49.9100 13.20 174.11 159.98
    49.9200 13.13 172.44 159.16
    49.9300 11.89 141.39 159.06
    49.9400 12.73 161.94 159.87
    49.9500 13.02 169.49 162.36
    49.9600 13.31 177.05 167.08
    49.9700 13.29 176.65 173.21
    49.9800 13.39 179.17 177.52
    49.9900 13.07 170.76 176.69
    50.0000 12.69 161.12 171.65
    50.0100 13.20 174.14 166.28
    50.0200 12.74 162.38 163.52
    50.0300 13.15 172.88 164.31
    50.0400 12.34 152.32 168.01
    50.0500 13.20 174.12 172.29
    50.0600 13.07 170.76 173.68
    50.0700 12.68 160.70 171.15
    50.0800 12.89 166.16 167.61
    50.0900 12.76 162.80 165.37
    50.1000 12.96 167.86 164.98
    50.1100 12.49 156.10 166.10
    50.1200 12.91 166.59 167.84
    50.1300 12.92 167.02 168.18
    50.1400 12.97 168.28 165.96
    50.1500 13.31 177.10 162.69
    50.1600 12.61 159.06 160.11
    50.1700 12.48 155.70 158.73
    50.1800 12.86 165.35 158.25
    50.1900 12.63 159.46 158.31
    50.2000 11.96 143.10 158.99
    50.2100 12.41 154.01 160.78
    50.2200 12.63 159.47 164.17
    50.2300 13.36 178.36 168.71
    50.2400 12.73 162.00 172.40
    50.2500 13.05 170.40 173.09
    50.2600 13.36 178.37 171.15
    50.2700 12.51 156.55 168.85
    50.2800 12.86 165.36 167.65
    50.2900 13.18 173.77 167.01
    50.3000 13.13 172.50 166.49
    50.3100 12.97 168.31 167.46
    50.3200 12.97 168.31 170.69
    50.3300 12.10 146.50 174.50
    50.3400 13.33 177.56 175.91
    50.3500 12.51 156.56 173.88
    50.3600 12.86 165.39 170.32
    50.3700 12.88 165.80 168.23
    50.3800 12.78 163.28 169.23
    50.3900 13.44 180.50 173.27
    50.4000 13.37 178.83 179.63
    50.4100 13.34 178.00 186.33
    50.4200 13.68 187.23 189.03
    50.4300 13.71 188.08 186.40
    50.4400 13.62 185.57 182.47
    50.4500 13.51 182.63 179.23
    50.4600 13.01 169.19 174.95
    50.4700 12.93 167.11 169.51
    50.4800 12.83 164.58 165.32
    50.4900 12.53 157.02 163.77
    50.5000 12.60 158.71 164.34
    50.5100 12.36 152.84 165.32
    50.5200 13.17 173.40 165.64
    50.5300 13.18 173.83 165.40
    50.5400 12.96 167.96 164.56
    50.5500 12.60 158.73 162.96
    50.5600 12.70 161.24 161.04
    50.5700 12.65 159.99 159.59
    50.5800 12.57 157.89 159.22
    50.5900 13.12 172.17 160.43
    50.6000 12.63 159.57 163.60
    50.6100 13.64 186.05 168.29
    50.6200 13.14 172.60 172.33
    50.6300 12.94 167.57 172.68
    50.6400 12.38 153.29 169.08
    50.6500 13.17 173.45 164.32
    50.6600 12.68 160.85 160.88
    50.6700 12.73 162.11 159.55
    50.6800 13.07 170.94 160.22
    50.6900 13.22 174.73 162.62
    50.7000 13.44 180.61 165.92
    50.7100 12.53 157.08 168.37
    50.7200 12.70 161.28 168.68
    50.7300 13.20 174.31 168.63
    50.7400 13.44 180.61 171.23
    50.7500 13.75 189.00 176.56
    50.7600 13.92 193.64 180.51
    50.7700 14.20 201.63 178.24
    50.7800 13.23 175.16 171.38
    50.7900 13.50 182.30 164.80
    50.8000 13.01 169.29 161.18
    50.8100 12.07 145.76 160.66
    50.8200 13.49 181.89 162.09
    50.8300 12.80 163.82 163.81
    50.8400 12.87 165.51 164.00
    50.8500 12.52 156.69 162.30
    50.8600 12.75 162.57 160.12
    50.8700 11.83 139.89 158.49
    50.8800 12.95 167.64 157.54
    50.8900 12.72 161.77 157.05
    50.9000 12.40 153.79 156.80
    50.9100 13.01 169.32 156.68
    50.9200 12.93 167.24 156.63
    50.9300 12.92 166.81 156.63
    50.9400 12.87 165.57 156.66
    50.9500 12.21 149.16 156.76
    50.9600 12.30 151.27 157.06
    50.9700 12.90 166.40 157.86
    50.9800 12.37 152.94 159.61
    50.9900 12.90 166.40 162.32
    51.0000 12.33 152.11 165.03
    51.0100 12.96 168.09 165.78
    51.0200 13.03 169.79 163.94
    51.0300 12.85 165.16 161.29
    51.0400 12.49 155.90 159.52
    51.0500 13.03 169.79 159.23
    51.0600 13.10 171.48 160.30
    51.0700 12.84 164.76 162.75
    51.0800 12.95 167.69 167.14
    51.0900 13.36 178.61 174.30
    51.1000 13.43 180.30 183.06
    51.1100 13.51 182.40 188.30
    51.1200 14.02 196.69 185.03
    51.1300 13.49 181.99 175.80
    51.1400 12.98 168.53 166.88
    51.1500 12.57 158.04 161.32
    51.1600 12.35 152.58 158.85
    51.1700 12.59 158.45 158.06
    51.1800 12.72 161.83 158.08
    51.1900 13.13 172.33 158.69
    51.2000 12.50 156.36 159.84
    51.2100 13.21 174.46 161.11
    51.2200 12.95 167.73 161.87
    51.2300 12.16 147.97 162.16
    51.2400 12.39 153.44 163.26
    51.2500 12.54 157.22 166.03
    51.2600 12.69 161.03 169.60
    51.2700 13.19 174.05 172.08
    51.2800 13.27 176.15 173.99
    51.2900 14.19 201.38 179.30
    51.3000 13.34 177.83 189.44
    51.3100 14.51 210.62 199.19
    51.3200 14.25 203.05 199.46
    51.3300 13.55 183.72 189.24
    51.3400 13.15 172.80 177.09
    51.3500 13.62 185.42 169.35
    51.3600 13.18 173.65 166.88
    51.3700 12.92 166.93 167.66
    51.3800 13.26 175.76 169.77
    51.3900 13.38 179.12 171.49
    51.4000 12.76 162.73 171.76
    51.4100 13.18 173.66 172.50
    51.4200 13.41 179.96 175.90
    51.4300 12.87 165.66 180.51
    51.4400 13.68 187.12 181.96
    51.4500 13.51 182.50 178.90
    51.4600 13.00 169.05 175.20
    51.4700 13.35 178.29 173.77
    51.4800 13.56 183.76 174.97
    51.4900 13.66 186.70 177.64
    51.5000 14.04 197.21 178.83
    51.5100 12.87 165.67 176.94
    51.5200 13.42 179.98 174.73
    51.5300 13.40 179.56 174.52
    51.5400 13.26 175.79 175.25
    51.5500 13.40 179.58 175.27
    51.5600 13.05 170.32 175.98
    51.5700 13.49 182.09 179.01
    51.5800 14.12 199.34 183.54
    51.5900 13.95 194.73 186.46
    51.6000 13.03 169.91 184.21
    51.6100 13.74 188.83 178.66
    51.6200 13.20 174.11 173.70
    51.6300 13.51 182.53 170.27
    51.6400 13.29 176.63 168.42
    51.6500 13.03 169.91 168.33
    51.6600 13.49 182.11 169.01
    51.6700 13.05 170.34 169.07
    51.6800 13.48 181.70 168.14
    51.6900 13.05 170.36 166.62
    51.7000 12.84 164.88 164.92
    51.7100 12.31 151.42 162.91
    51.7200 12.82 164.46 160.96
    51.7300 12.56 157.73 159.67
    51.7400 12.68 160.68 159.37
    51.7500 12.92 167.00 160.30
    51.7600 12.76 162.78 162.66
    51.7700 12.81 164.05 166.59
    51.7800 12.64 159.86 172.06
    51.7900 13.29 176.69 179.58
    51.8000 13.39 179.21 190.14
    51.8100 13.70 187.63 201.27
    51.8200 13.65 186.37 205.87
    51.8300 13.53 183.00 198.76
    51.8400 13.54 183.43 185.01
    51.8500 12.73 161.96 173.43
    51.8600 13.53 183.00 168.08
    51.8700 13.68 187.21 168.06
    51.8800 13.04 169.98 169.94
    51.8900 12.68 160.73 169.96
    51.9000 12.49 156.10 166.95
    51.9100 12.59 158.63 163.09
    51.9200 12.29 151.06 160.32
    51.9300 12.51 156.53 159.20
    51.9400 12.26 150.22 159.40
    51.9500 12.34 152.33 160.41
    51.9600 12.61 159.06 161.63
    51.9700 12.68 160.75 162.34
    51.9800 12.75 162.44 161.88
    51.9900 12.96 167.91 160.49
    52.0000 12.29 151.09 158.99
    52.0100 12.97 168.33 157.95
    52.0200 12.51 156.56 157.43
    52.0300 12.61 159.08 157.22
    52.0400 12.78 163.30 157.15
    52.0500 12.84 164.99 157.13
    52.0600 12.29 151.12 157.11
    52.0700 12.58 158.27 157.10
    52.0800 12.66 160.38 157.11
    52.0900 12.03 144.81 157.14
    52.1000 12.83 164.58 157.19
    52.1100 12.14 147.31 157.30
    52.1200 12.50 156.16 157.42
    52.1300 12.86 165.43 157.56
    52.1400 11.95 142.70 157.77
    52.1500 12.07 145.66 158.21
    52.1600 12.96 167.98 159.32
    52.1700 12.78 163.34 161.85
    52.1800 13.63 185.67 166.58
    52.1900 13.28 176.40 173.15
    52.2000 13.75 189.03 179.28
    52.2100 13.06 170.50 182.04
    52.2200 13.22 174.73 180.04
    52.2300 13.38 178.94 175.12
    52.2400 13.09 171.38 171.27
    52.2500 13.87 192.42 171.39
    52.2600 14.08 198.32 176.18
    52.2700 13.17 173.48 183.80
    52.2800 13.36 178.52 189.77
    52.2900 13.38 178.96 190.48
    52.3000 13.93 194.12 188.20
    52.3100 13.67 186.97 185.05
    52.3200 13.30 176.86 180.43
    52.3300 13.57 184.03 174.53
    52.3400 13.44 180.66 168.29
    52.3500 13.09 171.40 163.34
    52.3600 13.17 173.50 160.37
    52.3700 12.63 159.60 158.97
    52.3800 12.28 150.77 158.47
    52.3900 12.83 164.67 158.44
    52.4000 12.68 160.88 158.76
    52.4100 12.96 168.04 159.90
    52.4200 13.46 181.09 162.87
    52.4300 13.30 176.89 168.54
    52.4400 13.55 183.63 176.03
    52.4500 14.01 196.25 181.60
    52.4600 13.11 171.82 181.20
    52.4700 13.19 173.95 176.60
    52.4800 12.33 152.04 171.88
    52.4900 13.16 173.09 168.27
    52.5000 12.95 167.63 165.66
    52.5100 13.14 172.68 164.44
    52.5200 12.33 152.04 164.38
    52.5300 12.62 159.19 164.41
    52.5400 12.43 154.57 163.98
    52.5500 12.78 163.42 163.88
    52.5600 13.03 169.74 164.63
    52.5700 12.64 159.65 165.69
    52.5800 12.78 163.42 166.44
    52.5900 12.80 163.86 167.21
    52.6000 13.01 169.33 168.75
    52.6100 13.04 170.17 170.39
    52.6200 13.08 171.02 170.70
    52.6300 12.88 165.97 169.30
    52.6400 12.98 168.50 167.83
    52.6500 13.81 190.83 167.79
    52.6600 13.38 179.03 168.52
    52.6700 12.95 167.65 167.97
    52.6800 12.87 165.56 166.13
    52.6900 13.13 172.29 165.57
    52.7000 12.90 166.39 168.71
    52.7100 13.01 169.35 176.13
    52.7200 14.07 197.99 185.21
    52.7300 13.40 179.47 190.00
    52.7400 13.19 174.00 185.68
    52.7500 13.16 173.17 175.96
    52.7600 12.47 155.47 167.12
    52.7700 12.85 165.16 161.86
    52.7800 11.93 142.41 159.77
    52.7900 13.05 170.21 159.68
    52.8000 12.74 162.22 161.22
    52.8100 12.67 160.54 164.49
    52.8200 12.82 164.32 168.69
    52.8300 12.97 168.12 171.48
    52.8400 13.10 171.50 170.68
    52.8500 13.00 168.97 167.67
    52.8600 13.44 180.76 165.07
    52.8700 12.79 163.48 164.57
    52.8800 13.44 180.76 167.03
    52.8900 12.95 167.70 171.80
    52.9000 12.70 161.39 175.87
    52.9100 13.35 178.24 175.43
    52.9200 12.90 166.46 170.91
    52.9300 12.35 152.54 165.97
    52.9400 13.14 172.78 162.80
    52.9500 12.50 156.35 161.63
    52.9600 12.95 167.72 161.90
    52.9700 12.59 158.45 162.62
    52.9800 13.13 172.36 162.57
    52.9900 12.21 149.18 161.43
    53.0000 12.67 160.57 160.14
    53.0100 12.50 156.35 159.56
    53.0200 12.52 156.77 159.95
    53.0300 13.02 169.42 161.11
    53.0400 12.66 160.16 162.75
    53.0500 12.74 162.27 165.38
    53.0600 13.03 169.85 171.14
    53.0700 13.42 179.97 181.68
    53.0800 14.47 209.49 194.68
    53.0900 14.16 200.63 202.99
    53.1000 14.62 213.71 201.58
    53.1100 14.72 216.67 195.08
    53.1200 13.60 185.06 187.54
    53.1300 12.74 162.29 178.77
    53.1400 13.16 173.26 170.33
    53.1500 12.67 160.61 164.28
    53.1600 12.52 156.82 161.10
    53.1700 12.51 156.40 159.97
    53.1800 12.56 157.66 159.99
    53.1900 12.46 155.13 160.82
    53.2000 12.76 162.72 162.31
    53.2100 13.39 179.18 163.89
    53.2200 12.92 166.95 164.82
    53.2300 12.74 162.31 165.46
    53.2400 12.72 161.89 166.37
    53.2500 12.08 145.88 166.85
    53.2600 13.05 170.34 166.27
    53.2700 12.69 161.08 165.59
    53.2800 12.47 155.58 165.66
    53.2900 13.28 176.25 166.27
    53.3000 12.86 165.28 167.19
    53.3100 12.61 158.96 169.02
    53.3200 13.26 175.82 171.84
    53.3300 13.02 169.50 174.66
    53.3400 13.64 185.93 177.88
    53.3500 13.18 173.73 182.93
    53.3600 13.82 191.01 188.65
    53.3700 13.67 186.80 192.01
    53.3800 13.71 188.07 191.25
    53.3900 13.51 182.59 188.16
    53.4000 13.21 174.59 184.72
    53.4100 13.42 180.06 181.74
    53.4200 13.02 169.52 178.68
    53.4300 13.34 177.96 173.87
    53.4400 13.12 172.05 168.42
    53.4500 12.94 167.41 164.37
    53.4600 12.30 151.38 162.45
    53.4700 12.97 168.26 162.43
    53.4800 11.96 142.96 163.77
    53.4900 12.76 162.78 165.97
    53.5000 12.15 147.61 168.33
    53.5100 12.84 164.91 169.61
    53.5200 13.12 172.08 168.41
    53.5300 12.39 153.50 165.07
    53.5400 12.64 159.84 161.66
    53.5500 13.04 169.96 159.53
    53.5600 12.53 156.89 158.87
    53.5700 12.44 154.78 159.38
    53.5800 12.53 156.90 160.67
    53.5900 12.53 156.92 162.43
    53.6000 12.58 158.17 164.42
    53.6100 12.54 157.33 166.67
    53.6200 13.53 183.05 168.50
    53.6300 13.09 171.26 169.10
    53.6400 12.69 161.14 169.70
    53.6500 12.68 160.71 171.43
    53.6600 12.97 168.31 172.77
    53.6700 12.58 158.19 171.32
    53.6800 12.15 147.64 167.31
    53.6900 12.46 155.24 163.23
    53.7000 12.78 163.25 160.84
    53.7100 12.84 164.96 160.39
    53.7200 13.23 175.07 161.38
    53.7300 13.42 180.13 163.41
    53.7400 12.73 162.00 166.52
    53.7500 13.39 179.29 170.79
    53.7600 13.44 180.57 175.25
    53.7700 13.33 177.62 178.26
    53.7800 13.25 175.52 177.40
    53.7900 12.91 166.66 172.95
    53.8000 12.53 156.95 168.54
    53.8100 13.25 175.53 166.01
    53.8200 12.73 162.02 164.49
    53.8300 13.10 171.74 162.99
    53.8400 12.58 158.22 162.30
    53.8500 13.02 169.61 163.37
    53.8600 13.44 180.59 165.99
    53.8700 12.75 162.46 168.37
    53.8800 13.22 174.69 168.63
    53.8900 13.04 170.05 167.16
    53.9000 12.93 167.10 165.61
    53.9100 12.34 152.34 164.50
    53.9200 12.43 154.44 164.02
    53.9300 13.33 177.63 165.26
    53.9400 13.23 175.11 168.77
    53.9500 13.04 170.05 173.00
    53.9600 13.11 171.75 174.62
    53.9700 13.02 169.63 172.52
    53.9800 12.86 165.42 168.95
    53.9900 13.12 172.17 166.30
    54.0000 12.96 167.97 165.78
    54.0100 12.48 155.73 166.67
    54.0200 12.81 164.18 166.72
    54.0300 12.51 156.58 164.54
    54.0400 12.51 156.58 161.47
    54.0500 12.48 155.72 159.05
    54.0600 12.81 164.16 157.83
    54.0700 12.34 152.36 157.65
    54.0800 12.99 168.82 158.36
    54.0900 12.91 166.72 159.87
    54.1000 13.12 172.19 161.85
    54.1100 12.39 153.63 163.42
    54.1200 12.96 167.98 163.66
    54.1300 12.45 154.89 162.38
    54.1400 13.06 170.53 160.44
    54.1500 12.81 164.18 159.11
    54.1600 12.78 163.33 159.03
    54.1700 13.06 170.52 160.09
    54.1800 12.51 156.60 161.43
    54.1900 11.89 141.41 161.81
    54.2000 12.60 158.71 160.95
    54.2100 13.22 174.75 159.86
    54.2200 12.45 154.91 159.10
    54.2300 12.60 158.71 158.55
    54.2400 13.03 169.68 158.06
    54.2500 12.53 157.02 157.90
    54.2600 12.29 151.12 158.62
    54.2700 12.88 165.90 160.85
    54.2800 12.67 160.42 164.80
    54.2900 12.86 165.48 169.50
    54.3000 13.44 180.69 172.60
    54.3100 12.96 168.03 172.39
    54.3200 13.49 181.95 169.36
    54.3300 13.24 175.20 165.66
    54.3400 13.20 174.35 163.48
    54.3500 12.83 164.64 164.35
    54.3600 13.20 174.35 168.60
    54.3700 13.19 173.92 174.23
    54.3800 13.60 184.91 176.90
    54.3900 12.95 167.61 173.61
    54.4000 12.72 161.70 167.27
    54.4100 13.32 177.32 161.81
    54.4200 12.41 154.11 158.69
    54.4300 13.22 174.79 157.49
    54.4400 12.35 152.43 157.38
    54.4500 11.71 137.23 157.80
    54.4600 12.70 161.30 158.31
    54.4700 12.05 145.25 158.39
    54.4800 13.03 169.76 158.00
    54.4900 12.52 156.66 157.57
    54.5000 12.43 154.55 157.63
    54.5100 12.21 149.06 158.84
    54.5200 13.06 170.59 161.96
    54.5300 13.22 174.82 167.26
    54.5400 13.37 178.63 173.15
    54.5500 13.08 171.03 175.93
    54.5600 13.11 171.87 173.41
    54.5700 13.08 171.03 168.61
    54.5800 12.90 166.39 165.44
    54.5900 12.75 162.60 165.05
    54.6000 12.87 165.55 166.04
    54.6100 12.60 158.80 166.51
    54.6200 13.14 172.73 165.74
    54.6300 12.55 157.52 163.60
    54.6400 13.03 169.77 161.01
    54.6500 12.53 157.10 159.22
    54.6600 12.74 162.19 159.02
    54.6700 12.57 157.96 160.85
    54.6800 12.83 164.71 164.69
    54.6900 12.57 157.96 169.22
    54.7000 12.67 160.50 171.43
    54.7100 13.08 171.05 169.26
    54.7200 13.00 168.95 164.83
    54.7300 13.13 172.32 161.08
    54.7400 12.59 158.39 159.34
    54.7500 12.92 166.83 159.89
    54.7600 13.03 169.79 163.39
    54.7700 13.03 169.80 171.03
    54.7800 13.65 186.27 182.45
    54.7900 14.24 202.77 193.26
    54.8000 14.74 217.13 196.03
    54.8100 13.97 195.18 189.09
    54.8200 13.43 180.40 180.04
    54.8300 13.41 179.95 175.61
    54.8400 13.98 195.58 176.81
    54.8500 13.96 194.75 180.04
    54.8600 13.18 173.63 180.32
    54.8700 13.43 180.40 175.93
    54.8800 13.23 174.91 170.08
    54.8900 13.02 169.40 167.07
    54.9000 13.24 175.32 168.76
    54.9100 13.16 173.22 173.88
    54.9200 13.71 188.01 178.15
    54.9300 13.35 178.29 177.13
    54.9400 12.82 164.35 171.52
    54.9500 12.70 161.40 165.45
    54.9600 12.72 161.83 161.47
    54.9700 12.74 162.23 159.52
    54.9800 12.79 163.51 158.55
    54.9900 12.77 163.09 158.01
    55.0000 12.94 167.34 157.92
    55.0100 12.52 156.78 158.66
    55.0200 12.82 164.38 160.80
    55.0300 12.57 158.04 164.50
    55.0400 12.74 162.26 168.65
    55.0500 12.38 153.38 171.02
    55.0600 13.16 173.26 171.21
    55.0700 13.54 183.40 171.61
    55.0800 13.15 172.84 172.98
    55.0900 13.54 183.41 173.03
    55.1000 12.94 167.36 170.62
    55.1100 13.34 177.91 168.48
    55.1200 13.32 177.48 168.76
    55.1300 12.61 158.91 170.28
    55.1400 13.10 171.56 169.70
    55.1500 12.94 167.36 166.09
    55.1600 12.51 156.38 161.94
    55.1700 12.56 157.64 159.21
    55.1800 12.02 144.54 158.43
    55.1900 12.59 158.49 159.30
    55.2000 13.15 172.85 161.29
    55.2100 13.43 180.46 163.48
    55.2200 12.99 168.63 165.00
    55.2300 12.64 159.76 165.61
    55.2400 12.37 153.00 165.67
    55.2500 12.77 163.14 165.01
    55.2600 12.67 160.61 163.09
    55.2700 12.84 164.83 160.46
    55.2800 12.37 152.99 158.32
    55.2900 12.00 144.12 157.10
    55.3000 12.54 157.24 156.74
    55.3100 12.40 153.85 157.06
    55.3200 12.90 166.53 158.12
    55.3300 11.74 137.80 160.10
    55.3400 13.05 170.34 163.03
    55.3500 12.69 161.04 166.70
    55.3600 12.66 160.19 170.88
    55.3700 13.29 176.70 175.36
    55.3800 12.59 158.51 178.02
    55.3900 12.99 168.66 175.97
    55.4000 13.12 172.04 170.58
    55.4100 13.34 177.97 165.51
    55.4200 12.77 163.17 162.15
    55.4300 12.87 165.71 160.09
    55.4400 12.49 155.99 158.90
    55.4500 12.40 153.87 158.42
    55.4600 13.15 172.91 158.29
    55.4700 13.28 176.29 158.08
    55.4800 13.64 186.02 157.72
    55.4900 12.39 153.47 157.27
    55.5000 12.89 166.15 157.08
    55.5100 12.97 168.26 157.46
    55.5200 13.09 171.23 158.68
    55.5300 12.94 167.44 160.56
    55.5400 12.76 162.77 162.28
    55.5500 13.05 170.39 162.75
    55.5600 12.81 164.05 162.51
    55.5700 13.25 175.48 163.77
    55.5800 12.84 164.91 168.19
    55.5900 13.21 174.63 175.15
    55.6000 12.82 164.48 181.01
    55.6100 13.48 181.81 181.60
    55.6200 13.66 186.48 177.85
    55.6300 12.39 153.49 173.17
    55.6400 12.96 167.88 169.46
    55.6500 13.34 178.02 166.44
    55.6600 12.52 156.87 163.47
    55.6700 12.68 160.68 161.01
    55.6800 12.63 159.42 159.26
    55.6900 12.82 164.48 158.19
    55.7000 12.64 159.83 157.81
    55.7100 12.71 161.52 158.38
    55.7200 13.05 170.42 160.34
    55.7300 13.10 171.69 163.96
    55.7400 13.50 182.28 168.40
    55.7500 13.45 181.00 171.18
    55.7600 13.78 189.88 169.99
    55.7700 13.25 175.51 166.40
    55.7800 12.71 161.56 163.38
    55.7900 13.12 172.13 162.31
    55.8000 12.78 163.25 163.36
    55.8100 13.07 170.87 166.44
    55.8200 12.59 158.60 170.79
    55.8300 12.93 167.07 174.20
    55.8400 12.89 166.21 174.45
    55.8500 13.05 170.43 170.96
    55.8600 12.48 155.64 165.68
    55.8700 12.66 160.30 161.26
    55.8800 13.10 171.73 158.65
    55.8900 12.59 158.63 157.50
    55.9000 12.78 163.28 157.11
    55.9100 12.98 168.36 157.08
    55.9200 12.83 164.54 157.33
    55.9300 12.68 160.73 158.11
    55.9400 12.83 164.54 160.01
    55.9500 12.53 156.93 163.56
    55.9600 13.30 176.83 168.43
    55.9700 13.28 176.40 172.78
    55.9800 12.31 151.44 174.36
    55.9900 12.71 161.61 173.80
    56.0000 12.81 164.14 173.45
    56.0100 12.43 154.41 173.58
    56.0200 13.38 178.95 172.33
    56.0300 13.17 173.45 169.82
    56.0400 13.61 185.28 167.71
    56.0500 13.23 175.15 166.54
    56.0600 12.81 164.15 165.91
    56.0700 12.48 155.70 165.82
    56.0800 12.68 160.76 166.56
    56.0900 12.76 162.90 167.58
    56.1000 13.14 172.64 168.35
    56.1100 13.17 173.48 169.51
    56.1200 12.48 155.72 171.25
    56.1300 12.63 159.54 171.83
    56.1400 12.80 163.77 169.41
    56.1500 12.48 155.71 165.53
    56.1600 12.75 162.48 162.78
    56.1700 12.81 164.19 162.17
    56.1800 13.06 170.53 163.03
    56.1900 12.46 155.31 163.87
    56.2000 12.73 162.07 163.60
    56.2100 12.33 151.92 162.36
    56.2200 13.03 169.70 161.13
    56.2300 12.27 150.65 160.25
    56.2400 12.80 163.76 159.48
    56.2500 12.58 158.28 158.67
    56.2600 12.60 158.70 157.99
    56.2700 13.32 177.33 157.58
    56.2800 12.31 151.50 157.41
    56.2900 12.38 153.19 157.47
    56.3000 12.63 159.54 157.78
    56.3100 12.17 148.11 158.38
    56.3200 12.14 147.28 159.20
    56.3300 12.55 157.44 159.82
    56.3400 12.81 164.22 159.80
    56.3500 12.60 158.71 159.22
    56.3600 12.15 147.70 158.67
    56.3700 12.46 155.32 158.55
    56.3800 13.25 175.64 158.96
    56.3900 12.83 164.65 159.65
    56.4000 12.70 161.26 160.15
    56.4100 12.83 164.65 160.07
    56.4200 13.22 174.80 159.67
    56.4300 12.48 155.74 159.45
    56.4400 13.01 169.30 159.85
    56.4500 12.22 149.41 161.27
    56.4600 12.70 161.27 164.01
    56.4700 12.85 165.07 167.51
    56.4800 12.91 166.76 170.00
    56.4900 12.96 168.03 169.85
    56.5000 13.92 193.85 168.69
    56.5100 13.25 175.65 170.17
    56.5200 12.80 163.81 177.21
    56.5300 13.63 185.81 190.45
    56.5400 13.80 190.48 206.32
    56.5500 14.76 217.98 217.13
    56.5600 14.79 218.84 215.86
    56.5700 14.40 207.39 202.52
    56.5800 14.34 205.71 185.84
    56.5900 13.29 176.52 173.55
    56.6000 13.37 178.63 167.62
    56.6100 13.09 171.43 166.54
    56.6200 12.60 158.74 168.34
    56.6300 13.01 169.34 171.60
    56.6400 13.29 176.54 174.87
    56.6500 13.21 174.41 177.39
    56.6600 13.76 189.22 181.10
    56.6700 13.41 179.92 187.79
    56.6800 13.92 193.90 194.62
    56.6900 14.05 197.29 195.26
    56.7000 13.09 171.46 187.85
    56.7100 13.38 179.07 177.32
    56.7200 13.29 176.55 169.01
    56.7300 12.70 161.31 164.77
    56.7400 13.11 171.88 164.22
    56.7500 13.03 169.77 166.59
    56.7600 12.88 165.97 170.85
    56.7700 12.90 166.40 174.86
    56.7800 12.77 163.02 175.79
    56.7900 12.77 163.03 173.57
    56.8000 13.06 170.65 170.62
    56.8100 13.56 183.76 168.25
    56.8200 12.97 168.12 166.66
    56.8300 13.01 169.38 165.84
    56.8400 13.24 175.32 165.68
    56.8500 13.62 185.47 165.70
    56.8600 13.03 169.80 165.14
    56.8700 12.60 158.79 164.29
    56.8800 12.50 156.27 164.28
    56.8900 13.43 180.40 166.38
    56.9000 13.24 175.32 171.67
    56.9100 13.05 170.24 180.04
    56.9200 13.42 179.98 188.59
    56.9300 13.82 191.00 191.64
    56.9400 13.29 176.60 187.84
    56.9500 13.85 191.86 183.54
    56.9600 14.35 205.83 184.48
    56.9700 13.74 188.89 191.45
    56.9800 13.82 191.00 200.37
    56.9900 14.42 207.95 203.88
    57.0000 14.17 200.75 199.07
    57.0100 13.59 184.67 189.50
    57.0200 13.62 185.50 179.10
    57.0300 13.00 168.99 171.27
    57.0400 12.82 164.32 166.90
    57.0500 12.85 165.16 164.90
    57.0600 12.67 160.52 163.74
    57.0700 12.54 157.15 162.70
    57.0800 12.54 157.15 161.87
    57.0900 12.90 166.48 161.34
    57.1000 12.12 146.99 161.07
    57.1100 12.67 160.54 160.96
    57.1200 12.79 163.51 160.93
    57.1300 12.52 156.71 160.93
    57.1400 12.30 151.23 161.02
    57.1500 12.19 148.69 161.25
    57.1600 12.85 165.22 161.68
    57.1700 12.55 157.59 162.26
    57.1800 12.12 147.01 162.75
    57.1900 12.18 148.28 162.79
    57.2000 12.28 150.83 162.46
    57.2100 12.47 155.48 162.15
    57.2200 12.38 153.37 162.23
    57.2300 13.03 169.88 162.84
    57.2400 12.69 160.99 164.04
    57.2500 12.50 156.33 165.80
    57.2600 13.40 179.62 168.19
    57.2700 12.55 157.59 171.30
    57.2800 13.28 176.25 174.41
    57.2900 13.00 169.03 175.66
    57.3000 13.37 178.78 174.59
    57.3100 12.84 164.82 172.69
    57.3200 12.21 149.14 171.15
    57.3300 13.08 171.17 170.61
    57.3400 13.28 176.25 170.93
    57.3500 12.30 151.25 171.02
    57.3600 13.31 177.12 170.10
    57.3700 12.92 166.95 168.56
    57.3800 13.28 176.26 167.32
    57.3900 12.55 157.62 166.73
    57.4000 13.00 169.07 166.71
    57.4100 12.72 161.86 167.14
    57.4200 12.23 149.58 168.48
    57.4300 12.72 161.86 171.25
    57.4400 13.07 170.75 175.02
    57.4500 13.18 173.74 177.90
    57.4600 13.48 181.77 178.04
    57.4700 13.04 169.92 176.38
    57.4800 13.05 170.35 174.70
    57.4900 13.10 171.61 173.57
    57.5000 12.92 166.97 173.21
    57.5100 12.74 162.29 173.96
    57.5200 11.81 139.42 176.40
    57.5300 13.04 169.93 180.38
    57.5400 12.94 167.40 184.36
    57.5500 12.82 164.43 186.57
    57.5600 13.15 172.97 187.19
    57.5700 13.45 180.97 186.01
    57.5800 13.83 191.37 182.72
    57.5900 13.82 190.96 179.23
    57.6000 13.76 189.28 177.05
    57.6100 13.74 188.74 176.46
    57.6200 13.98 195.35 177.61
    57.6300 14.58 212.54 180.85
    57.6400 14.50 210.12 185.58
    57.6500 14.55 211.80 189.79
    57.6600 14.47 209.37 191.61
    57.6700 15.04 226.32 191.32
    57.6800 14.47 209.43 190.48
    57.6900 14.21 202.00 189.92
    57.7000 14.11 199.16 189.08
    57.7100 13.88 192.54 187.39
    57.7200 14.14 199.99 185.58
    57.7300 14.16 200.44 184.01
    57.7400 14.27 203.76 182.80
    57.7500 14.03 196.75 182.58
    57.7600 13.46 181.05 183.46
    57.7700 13.07 170.73 185.01
    57.7800 14.06 197.62 186.93
    57.7900 14.01 196.39 188.35
    57.8000 14.82 219.55 188.11
    57.8100 13.32 177.39 186.32
    57.8200 14.00 196.01 184.18
    57.8300 14.62 213.80 183.12
    57.8400 14.55 211.74 183.73
    57.8500 14.44 208.45 185.61
    57.8600 14.05 197.27 187.77
    57.8700 14.83 220.02 189.86
    57.8800 14.59 212.99 192.34
    57.8900 14.61 213.43 196.20
    57.9000 14.69 215.93 201.94
    57.9100 15.29 233.72 207.01
    57.9200 14.88 221.32 207.28
    57.9300 14.67 215.13 202.99
    57.9400 14.65 214.70 197.74
    57.9500 14.96 223.81 194.21
    57.9600 13.57 184.09 192.14
    57.9700 14.67 215.14 190.62
    57.9800 13.93 194.04 189.28
    57.9900 13.81 190.73 187.91
    58.0000 13.68 187.03 186.76
    58.0100 14.08 198.19 186.04
    58.0200 14.12 199.43 185.65
    58.0300 13.42 179.99 185.51
    58.0400 14.22 202.33 185.60
    58.0500 14.25 203.18 185.88
    58.0600 14.12 199.45 186.30
    58.0700 12.98 168.43 186.78
    58.0800 13.87 192.44 187.26
    58.0900 14.03 196.98 187.59
    58.1000 14.33 205.26 187.88
    58.1100 13.06 170.49 188.64
    58.1200 13.86 192.03 190.30
    58.1300 14.12 199.47 192.83
    58.1400 13.98 195.35 195.45
    58.1500 13.78 189.95 197.29
    58.1600 14.18 201.15 198.35
    58.1700 14.30 204.46 199.35
    58.1800 13.89 192.88 200.27
    58.1900 14.23 202.38 200.58
    58.2000 13.96 194.95 199.49
    58.2100 13.43 180.47 196.83
    58.2200 14.41 207.79 194.03
    58.2300 13.83 191.24 192.16
    58.2400 13.71 187.94 191.39
    58.2500 14.11 199.11 191.48
    58.2600 13.59 184.61 192.32
    58.2700 14.01 196.22 193.93
    58.2800 14.17 200.78 196.20
    58.2900 14.08 198.31 198.36
    58.3000 13.25 175.53 199.27
    58.3100 13.66 186.70 199.07
    58.3200 14.13 199.54 198.86
    58.3300 14.33 205.34 199.23
    58.3400 14.01 196.24 200.40
    58.3500 14.08 198.31 203.14
    58.3600 14.17 200.81 207.80
    58.3700 13.80 190.45 212.28
    58.3800 14.23 202.44 213.39
    58.3900 14.13 199.56 210.11
    58.4000 14.30 204.52 205.34
    58.4100 13.71 187.96 201.42
    58.4200 14.10 198.73 199.19
    58.4300 13.89 192.94 198.38
    58.4400 13.96 195.01 198.40
    58.4500 14.07 197.92 198.91
    58.4600 13.94 194.20 199.49
    58.4700 14.04 197.09 199.85
    58.4800 13.51 182.60 200.55
    58.4900 14.59 212.83 201.72
    58.5000 13.82 190.89 202.42
    58.5100 13.92 193.78 201.66
    58.5200 13.11 171.84 199.69
    58.5300 14.08 198.34 198.01
    58.5400 14.17 200.86 198.00
    58.5500 13.70 187.59 200.00
    58.5600 13.94 194.22 203.17
    58.5700 14.02 196.70 205.23
    58.5800 13.77 189.66 204.10
    58.5900 13.70 187.59 200.89
    58.6000 13.85 191.75 197.98
    58.6100 14.48 209.55 196.50
    58.6200 13.39 179.32 196.36
    58.6300 14.46 209.15 197.04
    58.6400 14.16 200.43 198.33
    58.6500 14.14 200.02 200.08
    58.6600 13.95 194.63 201.66
    58.6700 14.17 200.85 202.39
    58.6800 13.88 192.57 202.14
    58.6900 13.74 188.84 200.78
    58.7000 13.76 189.28 199.30
    58.7100 13.95 194.66 199.23
    58.7200 14.11 199.22 201.41
    58.7300 14.26 203.35 205.57
    58.7400 14.16 200.45 210.28
    58.7500 14.13 199.63 213.00
    58.7600 13.86 192.18 212.51
    58.7700 14.76 217.86 210.99
    58.7800 14.39 207.10 210.51
    58.7900 14.82 219.53 210.76
    58.8000 14.32 205.04 210.46
    58.8100 14.32 205.03 208.30
    58.8200 14.38 206.71 205.03
    58.8300 13.50 182.25 203.07
    58.8400 14.36 206.26 203.59
    58.8500 14.00 195.93 206.14
    58.8600 14.29 204.22 209.11
    58.8700 14.32 205.05 210.24
    58.8800 14.32 205.06 209.01
    58.8900 13.79 190.15 205.74
    58.9000 14.29 204.23 201.40
    58.9100 14.09 198.42 197.76
    58.9200 14.33 205.47 195.67
    58.9300 14.49 210.02 194.85
    58.9400 14.54 211.28 194.57
    58.9500 13.53 183.10 194.27
    58.9600 13.28 176.48 194.00
    58.9700 14.06 197.61 194.11
    58.9800 14.68 215.41 194.80
    58.9900 13.74 188.92 196.05
    59.0000 13.92 193.89 197.59
    59.0100 13.82 191.00 198.93
    59.0200 13.83 191.40 199.99
    59.0300 14.13 199.70 200.47
    59.0400 14.46 209.22 199.59
    59.0500 14.28 203.83 197.97
    59.0600 14.19 201.34 197.35
    59.0700 14.25 203.02 199.44
    59.0800 14.26 203.41 205.53
    59.0900 15.08 227.44 215.57
    59.1000 14.94 223.31 226.79
    59.1100 15.38 236.57 234.16
    59.1200 15.53 241.13 235.33
    59.1300 16.01 256.48 230.55
    59.1400 14.69 215.84 222.88
    59.1500 14.92 222.49 216.73
    59.1600 14.89 221.68 212.13
    59.1700 14.16 200.54 206.99
    59.1800 14.55 211.73 201.75
    59.1900 13.94 194.32 198.18
    59.2000 13.93 193.92 197.18
    59.2100 13.62 185.62 198.23
    59.2200 14.96 223.75 199.73
    59.2300 14.16 200.55 199.97
    59.2400 13.96 194.75 198.40
    59.2500 13.97 195.17 196.05
    59.2600 14.03 196.82 194.05
    59.2700 13.50 182.32 192.75
    59.2800 13.59 184.81 191.96
    59.2900 13.99 195.60 191.56
    59.3000 14.16 200.57 191.47
    59.3100 13.50 182.34 191.53
    59.3200 13.70 187.72 191.56
    59.3300 13.84 191.46 191.61
    59.3400 13.87 192.27 192.07
    59.3500 14.00 196.03 193.28
    59.3600 13.91 193.53 195.11
    59.3700 14.29 204.30 196.66
    59.3800 14.10 198.92 196.71
    59.3900 13.91 193.55 195.36
    59.4000 13.85 191.89 194.01
    59.4100 14.22 202.23 193.95
    59.4200 14.32 205.13 195.88
    59.4300 14.45 208.88 199.74
    59.4400 13.66 186.50 204.55
    59.4500 13.90 193.14 208.61
    59.4600 14.74 217.18 211.55
    59.4700 14.95 223.40 214.30
    59.4800 14.32 205.17 215.18
    59.4900 14.51 210.56 212.21
    59.5000 14.60 213.04 207.40
    59.5100 14.48 209.72 204.19
    59.5200 15.30 234.20 204.03
    59.5300 14.70 215.97 206.20
    59.5400 14.72 216.76 209.70
    59.5500 15.33 235.03 215.37
    59.5600 15.14 229.25 222.53
    59.5700 15.10 227.98 226.53
    59.5800 15.19 230.88 222.72
    59.5900 14.99 224.67 212.80
    59.6000 14.86 220.93 202.76
    59.6100 14.34 205.60 195.99
    59.6200 14.54 211.41 192.56
    59.6300 13.58 184.46 191.14
    59.6400 13.97 195.24 190.59
    59.6500 14.22 202.30 190.37
    59.6600 14.12 199.38 190.31
    59.6700 13.87 192.35 190.40
    59.6800 13.32 177.44 190.67
    59.6900 14.02 196.51 191.06
    59.7000 13.81 190.68 191.47
    59.7100 13.70 187.80 191.87
    59.7200 13.91 193.60 192.73
    59.7300 13.49 182.00 194.93
    59.7400 14.44 208.52 198.99
    59.7500 14.44 208.52 204.08
    59.7600 13.82 191.13 207.61
    59.7700 14.35 206.06 207.28
    59.7800 14.27 203.57 204.00
    59.7900 14.51 210.61 200.73
    59.8000 14.12 199.42 199.47
    59.8100 14.37 206.46 199.90
    59.8200 14.81 219.33 200.35
    59.8300 14.08 198.18 199.96
    59.8400 14.35 206.06 198.79
    59.8500 13.80 190.33 197.56
    59.8600 13.69 187.44 196.58
    59.8700 12.94 167.52 195.62
    59.8800 14.37 206.49 194.99
    59.8900 14.49 209.82 194.98
    59.9000 14.23 202.36 195.60
    59.9100 13.78 189.92 196.34
    59.9200 14.25 203.18 196.36
    59.9300 13.38 179.13 195.49
    59.9400 13.97 195.30 194.52
    59.9500 13.64 186.18 193.98
    59.9600 13.32 177.47 194.09
    59.9700 13.87 192.39 195.01
    59.9800 14.56 211.89 197.01
    59.9900 13.95 194.47 200.21
    60.0000 14.25 203.19 204.21
    60.0100 13.95 194.48 208.17
    60.0200 14.88 221.44 212.50
    60.0300 14.92 222.71 218.91
    60.0400 14.53 211.09 226.31
_pd_proc_info_data_reduction     ?
loop_
    _pd_proc_info_excluded_regions
    'from 11.67 to 11.670'
_pd_proc_ls_background_function
                          'Manual background combined with 20 Legendre polynoms'
_pd_proc_ls_pref_orient_corr     none
_pd_proc_ls_prof_R_factor     0.0586
_pd_proc_ls_prof_wR_factor     0.0785
_pd_proc_ls_prof_wR_expected     0.0580
_pd_proc_ls_profile_function     'Pseudo-Voigt'
_pd_proc_ls_special_details     ?
loop_
    _pd_proc_point_id
    1
    2
    3
    4
    5
    6
    7
    8
    9
    10
    11
    12
    13
    14
    15
    16
    17
    18
    19
    20
    21
    22
    23
    24
    25
    26
    27
    28
    29
    30
    31
    32
    33
    34
    35
    36
    37
    38
    39
    40
    41
    42
    43
    44
    45
    46
    47
    48
    49
    50
    51
    52
    53
    54
    55
    56
    57
    58
    59
    60
    61
    62
    63
    64
    65
    66
    67
    68
    69
    70
    71
    72
    73
    74
    75
    76
    77
    78
    79
    80
    81
    82
    83
    84
    85
    86
    87
    88
    89
    90
    91
    92
    93
    94
    95
    96
    97
    98
    99
    100
    101
    102
    103
    104
    105
    106
    107
    108
    109
    110
    111
    112
    113
    114
    115
    116
    117
    118
    119
    120
    121
    122
    123
    124
    125
    126
    127
    128
    129
    130
    131
    132
    133
    134
    135
    136
    137
    138
    139
    140
    141
    142
    143
    144
    145
    146
    147
    148
    149
    150
    151
    152
    153
    154
    155
    156
    157
    158
    159
    160
    161
    162
    163
    164
    165
    166
    167
    168
    169
    170
    171
    172
    173
    174
    175
    176
    177
    178
    179
    180
    181
    182
    183
    184
    185
    186
    187
    188
    189
    190
    191
    192
    193
    194
    195
    196
    197
    198
    199
    200
    201
    202
    203
    204
    205
    206
    207
    208
    209
    210
    211
    212
    213
    214
    215
    216
    217
    218
    219
    220
    221
    222
    223
    224
    225
    226
    227
    228
    229
    230
    231
    232
    233
    234
    235
    236
    237
    238
    239
    240
    241
    242
    243
    244
    245
    246
    247
    248
    249
    250
    251
    252
    253
    254
    255
    256
    257
    258
    259
    260
    261
    262
    263
    264
    265
    266
    267
    268
    269
    270
    271
    272
    273
    274
    275
    276
    277
    278
    279
    280
    281
    282
    283
    284
    285
    286
    287
    288
    289
    290
    291
    292
    293
    294
    295
    296
    297
    298
    299
    300
    301
    302
    303
    304
    305
    306
    307
    308
    309
    310
    311
    312
    313
    314
    315
    316
    317
    318
    319
    320
    321
    322
    323
    324
    325
    326
    327
    328
    329
    330
    331
    332
    333
    334
    335
    336
    337
    338
    339
    340
    341
    342
    343
    344
    345
    346
    347
    348
    349
    350
    351
    352
    353
    354
    355
    356
    357
    358
    359
    360
    361
    362
    363
    364
    365
    366
    367
    368
    369
    370
    371
    372
    373
    374
    375
    376
    377
    378
    379
    380
    381
    382
    383
    384
    385
    386
    387
    388
    389
    390
    391
    392
    393
    394
    395
    396
    397
    398
    399
    400
    401
    402
    403
    404
    405
    406
    407
    408
    409
    410
    411
    412
    413
    414
    415
    416
    417
    418
    419
    420
    421
    422
    423
    424
    425
    426
    427
    428
    429
    430
    431
    432
    433
    434
    435
    436
    437
    438
    439
    440
    441
    442
    443
    444
    445
    446
    447
    448
    449
    450
    451
    452
    453
    454
    455
    456
    457
    458
    459
    460
    461
    462
    463
    464
    465
    466
    467
    468
    469
    470
    471
    472
    473
    474
    475
    476
    477
    478
    479
    480
    481
    482
    483
    484
    485
    486
    487
    488
    489
    490
    491
    492
    493
    494
    495
    496
    497
    498
    499
    500
    501
    502
    503
    504
    505
    506
    507
    508
    509
    510
    511
    512
    513
    514
    515
    516
    517
    518
    519
    520
    521
    522
    523
    524
    525
    526
    527
    528
    529
    530
    531
    532
    533
    534
    535
    536
    537
    538
    539
    540
    541
    542
    543
    544
    545
    546
    547
    548
    549
    550
    551
    552
    553
    554
    555
    556
    557
    558
    559
    560
    561
    562
    563
    564
    565
    566
    567
    568
    569
    570
    571
    572
    573
    574
    575
    576
    577
    578
    579
    580
    581
    582
    583
    584
    585
    586
    587
    588
    589
    590
    591
    592
    593
    594
    595
    596
    597
    598
    599
    600
    601
    602
    603
    604
    605
    606
    607
    608
    609
    610
    611
    612
    613
    614
    615
    616
    617
    618
    619
    620
    621
    622
    623
    624
    625
    626
    627
    628
    629
    630
    631
    632
    633
    634
    635
    636
    637
    638
    639
    640
    641
    642
    643
    644
    645
    646
    647
    648
    649
    650
    651
    652
    653
    654
    655
    656
    657
    658
    659
    660
    661
    662
    663
    664
    665
    666
    667
    668
    669
    670
    671
    672
    673
    674
    675
    676
    677
    678
    679
    680
    681
    682
    683
    684
    685
    686
    687
    688
    689
    690
    691
    692
    693
    694
    695
    696
    697
    698
    699
    700
    701
    702
    703
    704
    705
    706
    707
    708
    709
    710
    711
    712
    713
    714
    715
    716
    717
    718
    719
    720
    721
    722
    723
    724
    725
    726
    727
    728
    729
    730
    731
    732
    733
    734
    735
    736
    737
    738
    739
    740
    741
    742
    743
    744
    745
    746
    747
    748
    749
    750
    751
    752
    753
    754
    755
    756
    757
    758
    759
    760
    761
    762
    763
    764
    765
    766
    767
    768
    769
    770
    771
    772
    773
    774
    775
    776
    777
    778
    779
    780
    781
    782
    783
    784
    785
    786
    787
    788
    789
    790
    791
    792
    793
    794
    795
    796
    797
    798
    799
    800
    801
    802
    803
    804
    805
    806
    807
    808
    809
    810
    811
    812
    813
    814
    815
    816
    817
    818
    819
    820
    821
    822
    823
    824
    825
    826
    827
    828
    829
    830
    831
    832
    833
    834
    835
    836
    837
    838
    839
    840
    841
    842
    843
    844
    845
    846
    847
    848
    849
    850
    851
    852
    853
    854
    855
    856
    857
    858
    859
    860
    861
    862
    863
    864
    865
    866
    867
    868
    869
    870
    871
    872
    873
    874
    875
    876
    877
    878
    879
    880
    881
    882
    883
    884
    885
    886
    887
    888
    889
    890
    891
    892
    893
    894
    895
    896
    897
    898
    899
    900
    901
    902
    903
    904
    905
    906
    907
    908
    909
    910
    911
    912
    913
    914
    915
    916
    917
    918
    919
    920
    921
    922
    923
    924
    925
    926
    927
    928
    929
    930
    931
    932
    933
    934
    935
    936
    937
    938
    939
    940
    941
    942
    943
    944
    945
    946
    947
    948
    949
    950
    951
    952
    953
    954
    955
    956
    957
    958
    959
    960
    961
    962
    963
    964
    965
    966
    967
    968
    969
    970
    971
    972
    973
    974
    975
    976
    977
    978
    979
    980
    981
    982
    983
    984
    985
    986
    987
    988
    989
    990
    991
    992
    993
    994
    995
    996
    997
    998
    999
    1000
    1001
    1002
    1003
    1004
    1005
    1006
    1007
    1008
    1009
    1010
    1011
    1012
    1013
    1014
    1015
    1016
    1017
    1018
    1019
    1020
    1021
    1022
    1023
    1024
    1025
    1026
    1027
    1028
    1029
    1030
    1031
    1032
    1033
    1034
    1035
    1036
    1037
    1038
    1039
    1040
    1041
    1042
    1043
    1044
    1045
    1046
    1047
    1048
    1049
    1050
    1051
    1052
    1053
    1054
    1055
    1056
    1057
    1058
    1059
    1060
    1061
    1062
    1063
    1064
    1065
    1066
    1067
    1068
    1069
    1070
    1071
    1072
    1073
    1074
    1075
    1076
    1077
    1078
    1079
    1080
    1081
    1082
    1083
    1084
    1085
    1086
    1087
    1088
    1089
    1090
    1091
    1092
    1093
    1094
    1095
    1096
    1097
    1098
    1099
    1100
    1101
    1102
    1103
    1104
    1105
    1106
    1107
    1108
    1109
    1110
    1111
    1112
    1113
    1114
    1115
    1116
    1117
    1118
    1119
    1120
    1121
    1122
    1123
    1124
    1125
    1126
    1127
    1128
    1129
    1130
    1131
    1132
    1133
    1134
    1135
    1136
    1137
    1138
    1139
    1140
    1141
    1142
    1143
    1144
    1145
    1146
    1147
    1148
    1149
    1150
    1151
    1152
    1153
    1154
    1155
    1156
    1157
    1158
    1159
    1160
    1161
    1162
    1163
    1164
    1165
    1166
    1167
    1168
    1169
    1170
    1171
    1172
    1173
    1174
    1175
    1176
    1177
    1178
    1179
    1180
    1181
    1182
    1183
    1184
    1185
    1186
    1187
    1188
    1189
    1190
    1191
    1192
    1193
    1194
    1195
    1196
    1197
    1198
    1199
    1200
    1201
    1202
    1203
    1204
    1205
    1206
    1207
    1208
    1209
    1210
    1211
    1212
    1213
    1214
    1215
    1216
    1217
    1218
    1219
    1220
    1221
    1222
    1223
    1224
    1225
    1226
    1227
    1228
    1229
    1230
    1231
    1232
    1233
    1234
    1235
    1236
    1237
    1238
    1239
    1240
    1241
    1242
    1243
    1244
    1245
    1246
    1247
    1248
    1249
    1250
    1251
    1252
    1253
    1254
    1255
    1256
    1257
    1258
    1259
    1260
    1261
    1262
    1263
    1264
    1265
    1266
    1267
    1268
    1269
    1270
    1271
    1272
    1273
    1274
    1275
    1276
    1277
    1278
    1279
    1280
    1281
    1282
    1283
    1284
    1285
    1286
    1287
    1288
    1289
    1290
    1291
    1292
    1293
    1294
    1295
    1296
    1297
    1298
    1299
    1300
    1301
    1302
    1303
    1304
    1305
    1306
    1307
    1308
    1309
    1310
    1311
    1312
    1313
    1314
    1315
    1316
    1317
    1318
    1319
    1320
    1321
    1322
    1323
    1324
    1325
    1326
    1327
    1328
    1329
    1330
    1331
    1332
    1333
    1334
    1335
    1336
    1337
    1338
    1339
    1340
    1341
    1342
    1343
    1344
    1345
    1346
    1347
    1348
    1349
    1350
    1351
    1352
    1353
    1354
    1355
    1356
    1357
    1358
    1359
    1360
    1361
    1362
    1363
    1364
    1365
    1366
    1367
    1368
    1369
    1370
    1371
    1372
    1373
    1374
    1375
    1376
    1377
    1378
    1379
    1380
    1381
    1382
    1383
    1384
    1385
    1386
    1387
    1388
    1389
    1390
    1391
    1392
    1393
    1394
    1395
    1396
    1397
    1398
    1399
    1400
    1401
    1402
    1403
    1404
    1405
    1406
    1407
    1408
    1409
    1410
    1411
    1412
    1413
    1414
    1415
    1416
    1417
    1418
    1419
    1420
    1421
    1422
    1423
    1424
    1425
    1426
    1427
    1428
    1429
    1430
    1431
    1432
    1433
    1434
    1435
    1436
    1437
    1438
    1439
    1440
    1441
    1442
    1443
    1444
    1445
    1446
    1447
    1448
    1449
    1450
    1451
    1452
    1453
    1454
    1455
    1456
    1457
    1458
    1459
    1460
    1461
    1462
    1463
    1464
    1465
    1466
    1467
    1468
    1469
    1470
    1471
    1472
    1473
    1474
    1475
    1476
    1477
    1478
    1479
    1480
    1481
    1482
    1483
    1484
    1485
    1486
    1487
    1488
    1489
    1490
    1491
    1492
    1493
    1494
    1495
    1496
    1497
    1498
    1499
    1500
    1501
    1502
    1503
    1504
    1505
    1506
    1507
    1508
    1509
    1510
    1511
    1512
    1513
    1514
    1515
    1516
    1517
    1518
    1519
    1520
    1521
    1522
    1523
    1524
    1525
    1526
    1527
    1528
    1529
    1530
    1531
    1532
    1533
    1534
    1535
    1536
    1537
    1538
    1539
    1540
    1541
    1542
    1543
    1544
    1545
    1546
    1547
    1548
    1549
    1550
    1551
    1552
    1553
    1554
    1555
    1556
    1557
    1558
    1559
    1560
    1561
    1562
    1563
    1564
    1565
    1566
    1567
    1568
    1569
    1570
    1571
    1572
    1573
    1574
    1575
    1576
    1577
    1578
    1579
    1580
    1581
    1582
    1583
    1584
    1585
    1586
    1587
    1588
    1589
    1590
    1591
    1592
    1593
    1594
    1595
    1596
    1597
    1598
    1599
    1600
    1601
    1602
    1603
    1604
    1605
    1606
    1607
    1608
    1609
    1610
    1611
    1612
    1613
    1614
    1615
    1616
    1617
    1618
    1619
    1620
    1621
    1622
    1623
    1624
    1625
    1626
    1627
    1628
    1629
    1630
    1631
    1632
    1633
    1634
    1635
    1636
    1637
    1638
    1639
    1640
    1641
    1642
    1643
    1644
    1645
    1646
    1647
    1648
    1649
    1650
    1651
    1652
    1653
    1654
    1655
    1656
    1657
    1658
    1659
    1660
    1661
    1662
    1663
    1664
    1665
    1666
    1667
    1668
    1669
    1670
    1671
    1672
    1673
    1674
    1675
    1676
    1677
    1678
    1679
    1680
    1681
    1682
    1683
    1684
    1685
    1686
    1687
    1688
    1689
    1690
    1691
    1692
    1693
    1694
    1695
    1696
    1697
    1698
    1699
    1700
    1701
    1702
    1703
    1704
    1705
    1706
    1707
    1708
    1709
    1710
    1711
    1712
    1713
    1714
    1715
    1716
    1717
    1718
    1719
    1720
    1721
    1722
    1723
    1724
    1725
    1726
    1727
    1728
    1729
    1730
    1731
    1732
    1733
    1734
    1735
    1736
    1737
    1738
    1739
    1740
    1741
    1742
    1743
    1744
    1745
    1746
    1747
    1748
    1749
    1750
    1751
    1752
    1753
    1754
    1755
    1756
    1757
    1758
    1759
    1760
    1761
    1762
    1763
    1764
    1765
    1766
    1767
    1768
    1769
    1770
    1771
    1772
    1773
    1774
    1775
    1776
    1777
    1778
    1779
    1780
    1781
    1782
    1783
    1784
    1785
    1786
    1787
    1788
    1789
    1790
    1791
    1792
    1793
    1794
    1795
    1796
    1797
    1798
    1799
    1800
    1801
    1802
    1803
    1804
    1805
    1806
    1807
    1808
    1809
    1810
    1811
    1812
    1813
    1814
    1815
    1816
    1817
    1818
    1819
    1820
    1821
    1822
    1823
    1824
    1825
    1826
    1827
    1828
    1829
    1830
    1831
    1832
    1833
    1834
    1835
    1836
    1837
    1838
    1839
    1840
    1841
    1842
    1843
    1844
    1845
    1846
    1847
    1848
    1849
    1850
    1851
    1852
    1853
    1854
    1855
    1856
    1857
    1858
    1859
    1860
    1861
    1862
    1863
    1864
    1865
    1866
    1867
    1868
    1869
    1870
    1871
    1872
    1873
    1874
    1875
    1876
    1877
    1878
    1879
    1880
    1881
    1882
    1883
    1884
    1885
    1886
    1887
    1888
    1889
    1890
    1891
    1892
    1893
    1894
    1895
    1896
    1897
    1898
    1899
    1900
    1901
    1902
    1903
    1904
    1905
    1906
    1907
    1908
    1909
    1910
    1911
    1912
    1913
    1914
    1915
    1916
    1917
    1918
    1919
    1920
    1921
    1922
    1923
    1924
    1925
    1926
    1927
    1928
    1929
    1930
    1931
    1932
    1933
    1934
    1935
    1936
    1937
    1938
    1939
    1940
    1941
    1942
    1943
    1944
    1945
    1946
    1947
    1948
    1949
    1950
    1951
    1952
    1953
    1954
    1955
    1956
    1957
    1958
    1959
    1960
    1961
    1962
    1963
    1964
    1965
    1966
    1967
    1968
    1969
    1970
    1971
    1972
    1973
    1974
    1975
    1976
    1977
    1978
    1979
    1980
    1981
    1982
    1983
    1984
    1985
    1986
    1987
    1988
    1989
    1990
    1991
    1992
    1993
    1994
    1995
    1996
    1997
    1998
    1999
    2000
    2001
    2002
    2003
    2004
    2005
    2006
    2007
    2008
    2009
    2010
    2011
    2012
    2013
    2014
    2015
    2016
    2017
    2018
    2019
    2020
    2021
    2022
    2023
    2024
    2025
    2026
    2027
    2028
    2029
    2030
    2031
    2032
    2033
    2034
    2035
    2036
    2037
    2038
    2039
    2040
    2041
    2042
    2043
    2044
    2045
    2046
    2047
    2048
    2049
    2050
    2051
    2052
    2053
    2054
    2055
    2056
    2057
    2058
    2059
    2060
    2061
    2062
    2063
    2064
    2065
    2066
    2067
    2068
    2069
    2070
    2071
    2072
    2073
    2074
    2075
    2076
    2077
    2078
    2079
    2080
    2081
    2082
    2083
    2084
    2085
    2086
    2087
    2088
    2089
    2090
    2091
    2092
    2093
    2094
    2095
    2096
    2097
    2098
    2099
    2100
    2101
    2102
    2103
    2104
    2105
    2106
    2107
    2108
    2109
    2110
    2111
    2112
    2113
    2114
    2115
    2116
    2117
    2118
    2119
    2120
    2121
    2122
    2123
    2124
    2125
    2126
    2127
    2128
    2129
    2130
    2131
    2132
    2133
    2134
    2135
    2136
    2137
    2138
    2139
    2140
    2141
    2142
    2143
    2144
    2145
    2146
    2147
    2148
    2149
    2150
    2151
    2152
    2153
    2154
    2155
    2156
    2157
    2158
    2159
    2160
    2161
    2162
    2163
    2164
    2165
    2166
    2167
    2168
    2169
    2170
    2171
    2172
    2173
    2174
    2175
    2176
    2177
    2178
    2179
    2180
    2181
    2182
    2183
    2184
    2185
    2186
    2187
    2188
    2189
    2190
    2191
    2192
    2193
    2194
    2195
    2196
    2197
    2198
    2199
    2200
    2201
    2202
    2203
    2204
    2205
    2206
    2207
    2208
    2209
    2210
    2211
    2212
    2213
    2214
    2215
    2216
    2217
    2218
    2219
    2220
    2221
    2222
    2223
    2224
    2225
    2226
    2227
    2228
    2229
    2230
    2231
    2232
    2233
    2234
    2235
    2236
    2237
    2238
    2239
    2240
    2241
    2242
    2243
    2244
    2245
    2246
    2247
    2248
    2249
    2250
    2251
    2252
    2253
    2254
    2255
    2256
    2257
    2258
    2259
    2260
    2261
    2262
    2263
    2264
    2265
    2266
    2267
    2268
    2269
    2270
    2271
    2272
    2273
    2274
    2275
    2276
    2277
    2278
    2279
    2280
    2281
    2282
    2283
    2284
    2285
    2286
    2287
    2288
    2289
    2290
    2291
    2292
    2293
    2294
    2295
    2296
    2297
    2298
    2299
    2300
    2301
    2302
    2303
    2304
    2305
    2306
    2307
    2308
    2309
    2310
    2311
    2312
    2313
    2314
    2315
    2316
    2317
    2318
    2319
    2320
    2321
    2322
    2323
    2324
    2325
    2326
    2327
    2328
    2329
    2330
    2331
    2332
    2333
    2334
    2335
    2336
    2337
    2338
    2339
    2340
    2341
    2342
    2343
    2344
    2345
    2346
    2347
    2348
    2349
    2350
    2351
    2352
    2353
    2354
    2355
    2356
    2357
    2358
    2359
    2360
    2361
    2362
    2363
    2364
    2365
    2366
    2367
    2368
    2369
    2370
    2371
    2372
    2373
    2374
    2375
    2376
    2377
    2378
    2379
    2380
    2381
    2382
    2383
    2384
    2385
    2386
    2387
    2388
    2389
    2390
    2391
    2392
    2393
    2394
    2395
    2396
    2397
    2398
    2399
    2400
    2401
    2402
    2403
    2404
    2405
    2406
    2407
    2408
    2409
    2410
    2411
    2412
    2413
    2414
    2415
    2416
    2417
    2418
    2419
    2420
    2421
    2422
    2423
    2424
    2425
    2426
    2427
    2428
    2429
    2430
    2431
    2432
    2433
    2434
    2435
    2436
    2437
    2438
    2439
    2440
    2441
    2442
    2443
    2444
    2445
    2446
    2447
    2448
    2449
    2450
    2451
    2452
    2453
    2454
    2455
    2456
    2457
    2458
    2459
    2460
    2461
    2462
    2463
    2464
    2465
    2466
    2467
    2468
    2469
    2470
    2471
    2472
    2473
    2474
    2475
    2476
    2477
    2478
    2479
    2480
    2481
    2482
    2483
    2484
    2485
    2486
    2487
    2488
    2489
    2490
    2491
    2492
    2493
    2494
    2495
    2496
    2497
    2498
    2499
    2500
    2501
    2502
    2503
    2504
    2505
    2506
    2507
    2508
    2509
    2510
    2511
    2512
    2513
    2514
    2515
    2516
    2517
    2518
    2519
    2520
    2521
    2522
    2523
    2524
    2525
    2526
    2527
    2528
    2529
    2530
    2531
    2532
    2533
    2534
    2535
    2536
    2537
    2538
    2539
    2540
    2541
    2542
    2543
    2544
    2545
    2546
    2547
    2548
    2549
    2550
    2551
    2552
    2553
    2554
    2555
    2556
    2557
    2558
    2559
    2560
    2561
    2562
    2563
    2564
    2565
    2566
    2567
    2568
    2569
    2570
    2571
    2572
    2573
    2574
    2575
    2576
    2577
    2578
    2579
    2580
    2581
    2582
    2583
    2584
    2585
    2586
    2587
    2588
    2589
    2590
    2591
    2592
    2593
    2594
    2595
    2596
    2597
    2598
    2599
    2600
    2601
    2602
    2603
    2604
    2605
    2606
    2607
    2608
    2609
    2610
    2611
    2612
    2613
    2614
    2615
    2616
    2617
    2618
    2619
    2620
    2621
    2622
    2623
    2624
    2625
    2626
    2627
    2628
    2629
    2630
    2631
    2632
    2633
    2634
    2635
    2636
    2637
    2638
    2639
    2640
    2641
    2642
    2643
    2644
    2645
    2646
    2647
    2648
    2649
    2650
    2651
    2652
    2653
    2654
    2655
    2656
    2657
    2658
    2659
    2660
    2661
    2662
    2663
    2664
    2665
    2666
    2667
    2668
    2669
    2670
    2671
    2672
    2673
    2674
    2675
    2676
    2677
    2678
    2679
    2680
    2681
    2682
    2683
    2684
    2685
    2686
    2687
    2688
    2689
    2690
    2691
    2692
    2693
    2694
    2695
    2696
    2697
    2698
    2699
    2700
    2701
    2702
    2703
    2704
    2705
    2706
    2707
    2708
    2709
    2710
    2711
    2712
    2713
    2714
    2715
    2716
    2717
    2718
    2719
    2720
    2721
    2722
    2723
    2724
    2725
    2726
    2727
    2728
    2729
    2730
    2731
    2732
    2733
    2734
    2735
    2736
    2737
    2738
    2739
    2740
    2741
    2742
    2743
    2744
    2745
    2746
    2747
    2748
    2749
    2750
    2751
    2752
    2753
    2754
    2755
    2756
    2757
    2758
    2759
    2760
    2761
    2762
    2763
    2764
    2765
    2766
    2767
    2768
    2769
    2770
    2771
    2772
    2773
    2774
    2775
    2776
    2777
    2778
    2779
    2780
    2781
    2782
    2783
    2784
    2785
    2786
    2787
    2788
    2789
    2790
    2791
    2792
    2793
    2794
    2795
    2796
    2797
    2798
    2799
    2800
    2801
    2802
    2803
    2804
    2805
    2806
    2807
    2808
    2809
    2810
    2811
    2812
    2813
    2814
    2815
    2816
    2817
    2818
    2819
    2820
    2821
    2822
    2823
    2824
    2825
    2826
    2827
    2828
    2829
    2830
    2831
    2832
    2833
    2834
    2835
    2836
    2837
    2838
    2839
    2840
    2841
    2842
    2843
    2844
    2845
    2846
    2847
    2848
    2849
    2850
    2851
    2852
    2853
    2854
    2855
    2856
    2857
    2858
    2859
    2860
    2861
    2862
    2863
    2864
    2865
    2866
    2867
    2868
    2869
    2870
    2871
    2872
    2873
    2874
    2875
    2876
    2877
    2878
    2879
    2880
    2881
    2882
    2883
    2884
    2885
    2886
    2887
    2888
    2889
    2890
    2891
    2892
    2893
    2894
    2895
    2896
    2897
    2898
    2899
    2900
    2901
    2902
    2903
    2904
    2905
    2906
    2907
    2908
    2909
    2910
    2911
    2912
    2913
    2914
    2915
    2916
    2917
    2918
    2919
    2920
    2921
    2922
    2923
    2924
    2925
    2926
    2927
    2928
    2929
    2930
    2931
    2932
    2933
    2934
    2935
    2936
    2937
    2938
    2939
    2940
    2941
    2942
    2943
    2944
    2945
    2946
    2947
    2948
    2949
    2950
    2951
    2952
    2953
    2954
    2955
    2956
    2957
    2958
    2959
    2960
    2961
    2962
    2963
    2964
    2965
    2966
    2967
    2968
    2969
    2970
    2971
    2972
    2973
    2974
    2975
    2976
    2977
    2978
    2979
    2980
    2981
    2982
    2983
    2984
    2985
    2986
    2987
    2988
    2989
    2990
    2991
    2992
    2993
    2994
    2995
    2996
    2997
    2998
    2999
    3000
    3001
    3002
    3003
    3004
    3005
    3006
    3007
    3008
    3009
    3010
    3011
    3012
    3013
    3014
    3015
    3016
    3017
    3018
    3019
    3020
    3021
    3022
    3023
    3024
    3025
    3026
    3027
    3028
    3029
    3030
    3031
    3032
    3033
    3034
    3035
    3036
    3037
    3038
    3039
    3040
    3041
    3042
    3043
    3044
    3045
    3046
    3047
    3048
    3049
    3050
    3051
    3052
    3053
    3054
    3055
    3056
    3057
    3058
    3059
    3060
    3061
    3062
    3063
    3064
    3065
    3066
    3067
    3068
    3069
    3070
    3071
    3072
    3073
    3074
    3075
    3076
    3077
    3078
    3079
    3080
    3081
    3082
    3083
    3084
    3085
    3086
    3087
    3088
    3089
    3090
    3091
    3092
    3093
    3094
    3095
    3096
    3097
    3098
    3099
    3100
    3101
    3102
    3103
    3104
    3105
    3106
    3107
    3108
    3109
    3110
    3111
    3112
    3113
    3114
    3115
    3116
    3117
    3118
    3119
    3120
    3121
    3122
    3123
    3124
    3125
    3126
    3127
    3128
    3129
    3130
    3131
    3132
    3133
    3134
    3135
    3136
    3137
    3138
    3139
    3140
    3141
    3142
    3143
    3144
    3145
    3146
    3147
    3148
    3149
    3150
    3151
    3152
    3153
    3154
    3155
    3156
    3157
    3158
    3159
    3160
    3161
    3162
    3163
    3164
    3165
    3166
    3167
    3168
    3169
    3170
    3171
    3172
    3173
    3174
    3175
    3176
    3177
    3178
    3179
    3180
    3181
    3182
    3183
    3184
    3185
    3186
    3187
    3188
    3189
    3190
    3191
    3192
    3193
    3194
    3195
    3196
    3197
    3198
    3199
    3200
    3201
    3202
    3203
    3204
    3205
    3206
    3207
    3208
    3209
    3210
    3211
    3212
    3213
    3214
    3215
    3216
    3217
    3218
    3219
    3220
    3221
    3222
    3223
    3224
    3225
    3226
    3227
    3228
    3229
    3230
    3231
    3232
    3233
    3234
    3235
    3236
    3237
    3238
    3239
    3240
    3241
    3242
    3243
    3244
    3245
    3246
    3247
    3248
    3249
    3250
    3251
    3252
    3253
    3254
    3255
    3256
    3257
    3258
    3259
    3260
    3261
    3262
    3263
    3264
    3265
    3266
    3267
    3268
    3269
    3270
    3271
    3272
    3273
    3274
    3275
    3276
    3277
    3278
    3279
    3280
    3281
    3282
    3283
    3284
    3285
    3286
    3287
    3288
    3289
    3290
    3291
    3292
    3293
    3294
    3295
    3296
    3297
    3298
    3299
    3300
    3301
    3302
    3303
    3304
    3305
    3306
    3307
    3308
    3309
    3310
    3311
    3312
    3313
    3314
    3315
    3316
    3317
    3318
    3319
    3320
    3321
    3322
    3323
    3324
    3325
    3326
    3327
    3328
    3329
    3330
    3331
    3332
    3333
    3334
    3335
    3336
    3337
    3338
    3339
    3340
    3341
    3342
    3343
    3344
    3345
    3346
    3347
    3348
    3349
    3350
    3351
    3352
    3353
    3354
    3355
    3356
    3357
    3358
    3359
    3360
    3361
    3362
    3363
    3364
    3365
    3366
    3367
    3368
    3369
    3370
    3371
    3372
    3373
    3374
    3375
    3376
    3377
    3378
    3379
    3380
    3381
    3382
    3383
    3384
    3385
    3386
    3387
    3388
    3389
    3390
    3391
    3392
    3393
    3394
    3395
    3396
    3397
    3398
    3399
    3400
    3401
    3402
    3403
    3404
    3405
    3406
    3407
    3408
    3409
    3410
    3411
    3412
    3413
    3414
    3415
    3416
    3417
    3418
    3419
    3420
    3421
    3422
    3423
    3424
    3425
    3426
    3427
    3428
    3429
    3430
    3431
    3432
    3433
    3434
    3435
    3436
    3437
    3438
    3439
    3440
    3441
    3442
    3443
    3444
    3445
    3446
    3447
    3448
    3449
    3450
    3451
    3452
    3453
    3454
    3455
    3456
    3457
    3458
    3459
    3460
    3461
    3462
    3463
    3464
    3465
    3466
    3467
    3468
    3469
    3470
    3471
    3472
    3473
    3474
    3475
    3476
    3477
    3478
    3479
    3480
    3481
    3482
    3483
    3484
    3485
    3486
    3487
    3488
    3489
    3490
    3491
    3492
    3493
    3494
    3495
    3496
    3497
    3498
    3499
    3500
    3501
    3502
    3503
    3504
    3505
    3506
    3507
    3508
    3509
    3510
    3511
    3512
    3513
    3514
    3515
    3516
    3517
    3518
    3519
    3520
    3521
    3522
    3523
    3524
    3525
    3526
    3527
    3528
    3529
    3530
    3531
    3532
    3533
    3534
    3535
    3536
    3537
    3538
    3539
    3540
    3541
    3542
    3543
    3544
    3545
    3546
    3547
    3548
    3549
    3550
    3551
    3552
    3553
    3554
    3555
    3556
    3557
    3558
    3559
    3560
    3561
    3562
    3563
    3564
    3565
    3566
    3567
    3568
    3569
    3570
    3571
    3572
    3573
    3574
    3575
    3576
    3577
    3578
    3579
    3580
    3581
    3582
    3583
    3584
    3585
    3586
    3587
    3588
    3589
    3590
    3591
    3592
    3593
    3594
    3595
    3596
    3597
    3598
    3599
    3600
    3601
    3602
    3603
    3604
    3605
    3606
    3607
    3608
    3609
    3610
    3611
    3612
    3613
    3614
    3615
    3616
    3617
    3618
    3619
    3620
    3621
    3622
    3623
    3624
    3625
    3626
    3627
    3628
    3629
    3630
    3631
    3632
    3633
    3634
    3635
    3636
    3637
    3638
    3639
    3640
    3641
    3642
    3643
    3644
    3645
    3646
    3647
    3648
    3649
    3650
    3651
    3652
    3653
    3654
    3655
    3656
    3657
    3658
    3659
    3660
    3661
    3662
    3663
    3664
    3665
    3666
    3667
    3668
    3669
    3670
    3671
    3672
    3673
    3674
    3675
    3676
    3677
    3678
    3679
    3680
    3681
    3682
    3683
    3684
    3685
    3686
    3687
    3688
    3689
    3690
    3691
    3692
    3693
    3694
    3695
    3696
    3697
    3698
    3699
    3700
    3701
    3702
    3703
    3704
    3705
    3706
    3707
    3708
    3709
    3710
    3711
    3712
    3713
    3714
    3715
    3716
    3717
    3718
    3719
    3720
    3721
    3722
    3723
    3724
    3725
    3726
    3727
    3728
    3729
    3730
    3731
    3732
    3733
    3734
    3735
    3736
    3737
    3738
    3739
    3740
    3741
    3742
    3743
    3744
    3745
    3746
    3747
    3748
    3749
    3750
    3751
    3752
    3753
    3754
    3755
    3756
    3757
    3758
    3759
    3760
    3761
    3762
    3763
    3764
    3765
    3766
    3767
    3768
    3769
    3770
    3771
    3772
    3773
    3774
    3775
    3776
    3777
    3778
    3779
    3780
    3781
    3782
    3783
    3784
    3785
    3786
    3787
    3788
    3789
    3790
    3791
    3792
    3793
    3794
    3795
    3796
    3797
    3798
    3799
    3800
    3801
    3802
    3803
    3804
    3805
    3806
    3807
    3808
    3809
    3810
    3811
    3812
    3813
    3814
    3815
    3816
    3817
    3818
    3819
    3820
    3821
    3822
    3823
    3824
    3825
    3826
    3827
    3828
    3829
    3830
    3831
    3832
    3833
    3834
    3835
    3836
    3837
    3838
    3839
    3840
    3841
    3842
    3843
    3844
    3845
    3846
    3847
    3848
    3849
    3850
    3851
    3852
    3853
    3854
    3855
    3856
    3857
    3858
    3859
    3860
    3861
    3862
    3863
    3864
    3865
    3866
    3867
    3868
    3869
    3870
    3871
    3872
    3873
    3874
    3875
    3876
    3877
    3878
    3879
    3880
    3881
    3882
    3883
    3884
    3885
    3886
    3887
    3888
    3889
    3890
    3891
    3892
    3893
    3894
    3895
    3896
    3897
    3898
    3899
    3900
    3901
    3902
    3903
    3904
    3905
    3906
    3907
    3908
    3909
    3910
    3911
    3912
    3913
    3914
    3915
    3916
    3917
    3918
    3919
    3920
    3921
    3922
    3923
    3924
    3925
    3926
    3927
    3928
    3929
    3930
    3931
    3932
    3933
    3934
    3935
    3936
    3937
    3938
    3939
    3940
    3941
    3942
    3943
    3944
    3945
    3946
    3947
    3948
    3949
    3950
    3951
    3952
    3953
    3954
    3955
    3956
    3957
    3958
    3959
    3960
    3961
    3962
    3963
    3964
    3965
    3966
    3967
    3968
    3969
    3970
    3971
    3972
    3973
    3974
    3975
    3976
    3977
    3978
    3979
    3980
    3981
    3982
    3983
    3984
    3985
    3986
    3987
    3988
    3989
    3990
    3991
    3992
    3993
    3994
    3995
    3996
    3997
    3998
    3999
    4000
    4001
    4002
    4003
    4004
    4005
    4006
    4007
    4008
    4009
    4010
    4011
    4012
    4013
    4014
    4015
    4016
    4017
    4018
    4019
    4020
    4021
    4022
    4023
    4024
    4025
    4026
    4027
    4028
    4029
    4030
    4031
    4032
    4033
    4034
    4035
    4036
    4037
    4038
    4039
    4040
    4041
    4042
    4043
    4044
    4045
    4046
    4047
    4048
    4049
    4050
    4051
    4052
    4053
    4054
    4055
    4056
    4057
    4058
    4059
    4060
    4061
    4062
    4063
    4064
    4065
    4066
    4067
    4068
    4069
    4070
    4071
    4072
    4073
    4074
    4075
    4076
    4077
    4078
    4079
    4080
    4081
    4082
    4083
    4084
    4085
    4086
    4087
    4088
    4089
    4090
    4091
    4092
    4093
    4094
    4095
    4096
    4097
    4098
    4099
    4100
    4101
    4102
    4103
    4104
    4105
    4106
    4107
    4108
    4109
    4110
    4111
    4112
    4113
    4114
    4115
    4116
    4117
    4118
    4119
    4120
    4121
    4122
    4123
    4124
    4125
    4126
    4127
    4128
    4129
    4130
    4131
    4132
    4133
    4134
    4135
    4136
    4137
    4138
    4139
    4140
    4141
    4142
    4143
    4144
    4145
    4146
    4147
    4148
    4149
    4150
    4151
    4152
    4153
    4154
    4155
    4156
    4157
    4158
    4159
    4160
    4161
    4162
    4163
    4164
    4165
    4166
    4167
    4168
    4169
    4170
    4171
    4172
    4173
    4174
    4175
    4176
    4177
    4178
    4179
    4180
    4181
    4182
    4183
    4184
    4185
    4186
    4187
    4188
    4189
    4190
    4191
    4192
    4193
    4194
    4195
    4196
    4197
    4198
    4199
    4200
    4201
    4202
    4203
    4204
    4205
    4206
    4207
    4208
    4209
    4210
    4211
    4212
    4213
    4214
    4215
    4216
    4217
    4218
    4219
    4220
    4221
    4222
    4223
    4224
    4225
    4226
    4227
    4228
    4229
    4230
    4231
    4232
    4233
    4234
    4235
    4236
    4237
    4238
    4239
    4240
    4241
    4242
    4243
    4244
    4245
    4246
    4247
    4248
    4249
    4250
    4251
    4252
    4253
    4254
    4255
    4256
    4257
    4258
    4259
    4260
    4261
    4262
    4263
    4264
    4265
    4266
    4267
    4268
    4269
    4270
    4271
    4272
    4273
    4274
    4275
    4276
    4277
    4278
    4279
    4280
    4281
    4282
    4283
    4284
    4285
    4286
    4287
    4288
    4289
    4290
    4291
    4292
    4293
    4294
    4295
    4296
    4297
    4298
    4299
    4300
    4301
    4302
    4303
    4304
    4305
    4306
    4307
    4308
    4309
    4310
    4311
    4312
    4313
    4314
    4315
    4316
    4317
    4318
    4319
    4320
    4321
    4322
    4323
    4324
    4325
    4326
    4327
    4328
    4329
    4330
    4331
    4332
    4333
    4334
    4335
    4336
    4337
    4338
    4339
    4340
    4341
    4342
    4343
    4344
    4345
    4346
    4347
    4348
    4349
    4350
    4351
    4352
    4353
    4354
    4355
    4356
    4357
    4358
    4359
    4360
    4361
    4362
    4363
    4364
    4365
    4366
    4367
    4368
    4369
    4370
    4371
    4372
    4373
    4374
    4375
    4376
    4377
    4378
    4379
    4380
    4381
    4382
    4383
    4384
    4385
    4386
    4387
    4388
    4389
    4390
    4391
    4392
    4393
    4394
    4395
    4396
    4397
    4398
    4399
    4400
    4401
    4402
    4403
    4404
    4405
    4406
    4407
    4408
    4409
    4410
    4411
    4412
    4413
    4414
    4415
    4416
    4417
    4418
    4419
    4420
    4421
    4422
    4423
    4424
    4425
    4426
    4427
    4428
    4429
    4430
    4431
    4432
    4433
    4434
    4435
    4436
    4437
    4438
    4439
    4440
    4441
    4442
    4443
    4444
    4445
    4446
    4447
    4448
    4449
    4450
    4451
    4452
    4453
    4454
    4455
    4456
    4457
    4458
    4459
    4460
    4461
    4462
    4463
    4464
    4465
    4466
    4467
    4468
    4469
    4470
    4471
    4472
    4473
    4474
    4475
    4476
    4477
    4478
    4479
    4480
    4481
    4482
    4483
    4484
    4485
    4486
    4487
    4488
    4489
    4490
    4491
    4492
    4493
    4494
    4495
    4496
    4497
    4498
    4499
    4500
    4501
    4502
    4503
    4504
    4505
    4506
    4507
    4508
    4509
    4510
    4511
    4512
    4513
    4514
    4515
    4516
    4517
    4518
    4519
    4520
    4521
    4522
    4523
    4524
    4525
    4526
    4527
    4528
    4529
    4530
    4531
    4532
    4533
    4534
    4535
    4536
    4537
    4538
    4539
    4540
    4541
    4542
    4543
    4544
    4545
    4546
    4547
    4548
    4549
    4550
    4551
    4552
    4553
    4554
    4555
    4556
    4557
    4558
    4559
    4560
    4561
    4562
    4563
    4564
    4565
    4566
    4567
    4568
    4569
    4570
    4571
    4572
    4573
    4574
    4575
    4576
    4577
    4578
    4579
    4580
    4581
    4582
    4583
    4584
    4585
    4586
    4587
    4588
    4589
    4590
    4591
    4592
    4593
    4594
    4595
    4596
    4597
    4598
    4599
    4600
    4601
    4602
    4603
    4604
    4605
    4606
    4607
    4608
    4609
    4610
    4611
    4612
    4613
    4614
    4615
    4616
    4617
    4618
    4619
    4620
    4621
    4622
    4623
    4624
    4625
    4626
    4627
    4628
    4629
    4630
    4631
    4632
    4633
    4634
    4635
    4636
    4637
    4638
    4639
    4640
    4641
    4642
    4643
    4644
    4645
    4646
    4647
    4648
    4649
    4650
    4651
    4652
    4653
    4654
    4655
    4656
    4657
    4658
    4659
    4660
    4661
    4662
    4663
    4664
    4665
    4666
    4667
    4668
    4669
    4670
    4671
    4672
    4673
    4674
    4675
    4676
    4677
    4678
    4679
    4680
    4681
    4682
    4683
    4684
    4685
    4686
    4687
    4688
    4689
    4690
    4691
    4692
    4693
    4694
    4695
    4696
    4697
    4698
    4699
    4700
    4701
    4702
    4703
    4704
    4705
    4706
    4707
    4708
    4709
    4710
    4711
    4712
    4713
    4714
    4715
    4716
    4717
    4718
    4719
    4720
    4721
    4722
    4723
    4724
    4725
    4726
    4727
    4728
    4729
    4730
    4731
    4732
    4733
    4734
    4735
    4736
    4737
    4738
    4739
    4740
    4741
    4742
    4743
    4744
    4745
    4746
    4747
    4748
    4749
    4750
    4751
    4752
    4753
    4754
    4755
    4756
    4757
    4758
    4759
    4760
    4761
    4762
    4763
    4764
    4765
    4766
    4767
    4768
    4769
    4770
    4771
    4772
    4773
    4774
    4775
    4776
    4777
    4778
    4779
    4780
    4781
    4782
    4783
    4784
    4785
    4786
    4787
    4788
    4789
    4790
    4791
    4792
    4793
    4794
    4795
    4796
    4797
    4798
    4799
    4800
    4801
    4802
    4803
    4804
    4805
    4806
    4807
    4808
    4809
    4810
    4811
    4812
    4813
    4814
    4815
    4816
    4817
    4818
    4819
    4820
    4821
    4822
    4823
    4824
    4825
    4826
    4827
    4828
    4829
    4830
    4831
    4832
    4833
    4834
    4835
    4836
    4837
    4838
    4839
    4840
    4841
    4842
    4843
    4844
    4845
    4846
    4847
    4848
    4849
    4850
    4851
    4852
    4853
    4854
    4855
    4856
    4857
    4858
    4859
    4860
    4861
    4862
    4863
    4864
    4865
    4866
    4867
    4868
    4869
    4870
    4871
    4872
    4873
    4874
    4875
    4876
    4877
    4878
    4879
    4880
    4881
    4882
    4883
    4884
    4885
    4886
    4887
    4888
    4889
    4890
    4891
    4892
    4893
    4894
    4895
    4896
    4897
    4898
    4899
    4900
    4901
    4902
    4903
    4904
    4905
    4906
    4907
    4908
    4909
    4910
    4911
    4912
    4913
    4914
    4915
    4916
    4917
    4918
    4919
    4920
    4921
    4922
    4923
    4924
    4925
    4926
    4927
    4928
    4929
    4930
    4931
    4932
    4933
    4934
    4935
    4936
    4937
    4938
    4939
    4940
    4941
    4942
    4943
    4944
    4945
    4946
    4947
    4948
    4949
    4950
    4951
    4952
    4953
    4954
    4955
    4956
    4957
    4958
    4959
    4960
    4961
    4962
    4963
    4964
    4965
    4966
    4967
    4968
    4969
    4970
    4971
    4972
    4973
    4974
    4975
    4976
    4977
    4978
    4979
    4980
    4981
    4982
    4983
    4984
    4985
    4986
    4987
    4988
    4989
    4990
    4991
    4992
    4993
    4994
    4995
    4996
    4997
    4998
    4999
    5000
    5001
    5002
    5003
    5004
    5005
    5006
    5007
    5008
    5009
    5010
    5011
    5012
    5013
    5014
    5015
    5016
    5017
    5018
    5019
    5020
    5021
    5022
    5023
    5024
    5025
    5026
    5027
    5028
    5029
    5030
    5031
    5032
    5033
    5034
    5035
    5036
    5037
    5038
    5039
    5040
    5041
    5042
    5043
    5044
    5045
    5046
    5047
    5048
    5049
    5050
    5051
    5052
    5053
    5054
    5055
    5056
    5057
    5058
    5059
    5060
    5061
    5062
    5063
    5064
    5065
    5066
    5067
    5068
    5069
    5070
    5071
    5072
    5073
    5074
    5075
    5076
    5077
    5078
    5079
    5080
    5081
    5082
    5083
    5084
    5085
    5086
    5087
    5088
    5089
    5090
    5091
    5092
    5093
    5094
    5095
    5096
    5097
    5098
    5099
    5100
    5101
    5102
    5103
    5104
    5105
    5106
    5107
    5108
    5109
    5110
    5111
    5112
    5113
    5114
    5115
    5116
    5117
    5118
    5119
    5120
    5121
    5122
    5123
    5124
    5125
    5126
    5127
    5128
    5129
    5130
    5131
    5132
    5133
    5134
    5135
    5136
    5137
    5138
    5139
    5140
    5141
    5142
    5143
    5144
    5145
    5146
    5147
    5148
    5149
    5150
    5151
    5152
    5153
    5154
    5155
    5156
    5157
    5158
    5159
    5160
    5161
    5162
    5163
    5164
    5165
    5166
    5167
    5168
    5169
    5170
    5171
    5172
    5173
    5174
    5175
    5176
    5177
    5178
    5179
    5180
    5181
    5182
    5183
    5184
    5185
    5186
    5187
    5188
    5189
    5190
    5191
    5192
    5193
    5194
    5195
    5196
    5197
    5198
    5199
    5200
    5201
    5202
    5203
    5204
    5205
    5206
    5207
    5208
    5209
    5210
    5211
    5212
    5213
    5214
    5215
    5216
    5217
    5218
    5219
    5220
    5221
    5222
    5223
    5224
    5225
    5226
    5227
    5228
    5229
    5230
    5231
    5232
    5233
    5234
    5235
    5236
    5237
    5238
    5239
    5240
    5241
    5242
    5243
    5244
    5245
    5246
    5247
    5248
    5249
    5250
    5251
    5252
    5253
    5254
    5255
    5256
    5257
    5258
    5259
    5260
    5261
    5262
    5263
    5264
    5265
    5266
    5267
    5268
    5269
    5270
    5271
    5272
    5273
    5274
    5275
    5276
    5277
    5278
    5279
    5280
    5281
    5282
    5283
    5284
    5285
    5286
    5287
    5288
    5289
    5290
    5291
    5292
    5293
    5294
    5295
    5296
    5297
    5298
    5299
    5300
    5301
    5302
    5303
    5304
    5305
    5306
    5307
    5308
    5309
    5310
    5311
    5312
    5313
    5314
    5315
    5316
    5317
    5318
    5319
    5320
    5321
    5322
    5323
    5324
    5325
    5326
    5327
    5328
    5329
    5330
    5331
    5332
    5333
    5334
    5335
    5336
    5337
    5338
    5339
    5340
    5341
    5342
    5343
    5344
    5345
    5346
    5347
    5348
    5349
    5350
    5351
    5352
    5353
    5354
    5355
    5356
    5357
    5358
    5359
    5360
    5361
    5362
    5363
    5364
    5365
    5366
    5367
    5368
    5369
    5370
    5371
    5372
    5373
    5374
    5375
    5376
    5377
    5378
    5379
    5380
    5381
    5382
    5383
    5384
    5385
    5386
    5387
    5388
    5389
    5390
    5391
    5392
    5393
    5394
    5395
    5396
    5397
    5398
    5399
    5400
    5401
    5402
    5403
    5404
    5405
    5406
    5407
    5408
    5409
    5410
    5411
    5412
    5413
    5414
    5415
    5416
    5417
    5418
    5419
    5420
    5421
    5422
    5423
    5424
    5425
    5426
    5427
    5428
    5429
    5430
    5431
    5432
    5433
    5434
    5435
    5436
    5437
    5438
    5439
    5440
    5441
    5442
    5443
    5444
    5445
    5446
    5447
    5448
    5449
    5450
    5451
    5452
    5453
    5454
    5455
    5456
    5457
    5458
    5459
    5460
    5461
    5462
    5463
    5464
    5465
    5466
    5467
    5468
    5469
    5470
    5471
    5472
    5473
    5474
    5475
    5476
    5477
    5478
    5479
    5480
    5481
    5482
    5483
    5484
    5485
    5486
    5487
    5488
    5489
    5490
    5491
    5492
    5493
    5494
    5495
    5496
    5497
    5498
    5499
_pd_proc_wavelength     ?
_pd_spec_mount_mode     transmission
_pd_spec_mounting     ?
_pd_spec_shape     cylinder
_pd_spec_size_axial     ?
_pd_spec_size_equat     ?
_pd_spec_size_thick     ?
loop_
    _atom_site_type_symbol
    _atom_site_label
    _atom_site_fract_x
    _atom_site_fract_y
    _atom_site_fract_z
    _atom_site_U_iso_or_equiv
    _atom_site_adp_type
    _atom_site_calc_flag
    _atom_site_refinement_flags
    _atom_site_occupancy
    _atom_site_disorder_assembly
    _atom_site_disorder_group
    C C4a 0.1669(8) -0.0146(8) 0.8980(3) 0.0545(13) Uiso d . 1 . .
    C C5a 0.0970(9) -0.1028(9) 0.8799(4) 0.0545(13) Uiso d . 1 . .
    C C6a -0.0011(8) -0.0815(8) 0.8467(3) 0.0545(13) Uiso d . 1 . .
    C C7a -0.0292(6) 0.0287(8) 0.8317(3) 0.0545(13) Uiso d . 1 . .
    C C8a 0.0398(7) 0.1147(8) 0.8497(4) 0.0545(13) Uiso d . 1 . .
    C C9a 0.1352(8) 0.0931(8) 0.8820(4) 0.0545(13) Uiso d . 1 . .
    C C3a 0.1889(12) 0.2005(8) 0.8930(7) 0.0545(13) Uiso d . 1 . .
    C C2a 0.1132(9) 0.2883(8) 0.8640(4) 0.0545(13) Uiso d . 1 . .
    C C6'a 0.1788(11) 0.3547(10) 0.8206(5) 0.0545(13) Uiso d . 1 . .
    C C5'a 0.2453(11) 0.4549(11) 0.8446(6) 0.0545(13) Uiso d . 1 . .
    C C4'a 0.1726(17) 0.5287(11) 0.8831(10) 0.0545(13) Uiso d . 1 . .
    C C3'a 0.0775(14) 0.4766(10) 0.9125(7) 0.0545(13) Uiso d . 1 . .
    C C2'a 0.0586(14) 0.3647(9) 0.9079(6) 0.0545(13) Uiso d . 1 . .
    O O2a 0.2612(9) -0.0279(9) 0.9296(4) 0.048(2) Uiso d . 1 . .
    C C12a 0.2973(18) -0.1353(12) 0.9411(9) 0.0545(13) Uiso d . 1 . .
    O O4a -0.0714(9) -0.1652(10) 0.8282(5) 0.048(2) Uiso d . 1 . .
    C C13a -0.0463(18) -0.2773(11) 0.8455(10) 0.0545(13) Uiso d . 1 . .
    Cl Cl1a -0.1476(6) 0.0588(6) 0.7914(3) 0.0545(13) Uiso d . 1 . .
    O O1a 0.0258(10) 0.2249(9) 0.8359(6) 0.048(2) Uiso d . 1 . .
    O O3a 0.2769(11) 0.2221(10) 0.9202(6) 0.048(2) Uiso d . 1 . .
    O O6a -0.0192(13) 0.3071(10) 0.9388(6) 0.048(2) Uiso d . 1 . .
    C C11a -0.0727(19) 0.3635(12) 0.9821(8) 0.0545(13) Uiso d . 1 . .
    O O5a 0.1987(13) 0.6276(11) 0.8894(6) 0.048(2) Uiso d . 1 . .
    C C10a 0.2508(13) 0.2840(15) 0.7821(7) 0.0545(13) Uiso d . 1 . .
    H H25a 0.217757 0.207412 0.779588 0.0655 Uiso d . 1 . .
    H H26a 0.330173 0.279367 0.796685 0.0655 Uiso d . 1 . .
    H H27a 0.251936 0.318719 0.744633 0.0655 Uiso d . 1 . .
    H H28a -0.12094 0.310017 1.003352 0.0655 Uiso d . 1 . .
    H H29a -0.121137 0.424548 0.966828 0.0655 Uiso d . 1 . .
    H H30a -0.013847 0.395903 1.007100 0.0655 Uiso d . 1 . .
    H H31a 0.318169 -0.173823 0.905955 0.0655 Uiso d . 1 . .
    H H32a 0.234618 -0.177272 0.959651 0.0655 Uiso d . 1 . .
    H H33a 0.365066 -0.132447 0.965874 0.0655 Uiso d . 1 . .
    H H34a -0.101762 -0.32983 0.828276 0.0655 Uiso d . 1 . .
    H H35a -0.052183 -0.282292 0.886550 0.0655 Uiso d . 1 . .
    H H36a 0.032587 -0.29744 0.833809 0.0655 Uiso d . 1 . .
    H H37a 0.313372 0.427176 0.865099 0.0655 Uiso d . 1 . .
    H H38a 0.276045 0.501287 0.813821 0.0655 Uiso d . 1 . .
    H H39a 0.026218 0.523151 0.93593 0.0655 Uiso d . 1 . .
    H H40a 0.117815 0.38701 0.796705 0.0655 Uiso d . 1 . .
    H H41a 0.116325 -0.181085 0.890388 0.0655 Uiso d . 1 . .
    C C4b 0.3427(8) 0.3003(8) 0.5995(4) 0.0545(13) Uiso d . 1 . .
    C C5b 0.4094(8) 0.3841(10) 0.6238(4) 0.0545(13) Uiso d . 1 . .
    C C6b 0.4947(7) 0.3583(9) 0.6638(3) 0.0545(13) Uiso d . 1 . .
    C C7b 0.5110(6) 0.2456(8) 0.6787(3) 0.0545(13) Uiso d . 1 . .
    C C8b 0.4441(8) 0.1644(9) 0.6542(4) 0.0545(13) Uiso d . 1 . .
    C C9b 0.3623(8) 0.1924(8) 0.6156(4) 0.0545(13) Uiso d . 1 . .
    C C3b 0.3112(13) 0.0885(8) 0.5969(7) 0.0545(13) Uiso d . 1 . .
    C C2b 0.3814(9) -0.0043(8) 0.6249(4) 0.0545(13) Uiso d . 1 . .
    C C6'b 0.4546(10) -0.0715(10) 0.5840(5) 0.0545(13) Uiso d . 1 . .
    C C5'b 0.3873(13) -0.1661(11) 0.5561(5) 0.0545(13) Uiso d . 1 . .
    C C4'b 0.3136(19) -0.2355(11) 0.5964(7) 0.0545(13) Uiso d . 1 . .
    C C3'b 0.2665(15) -0.1790(11) 0.6452(6) 0.0545(13) Uiso d . 1 . .
    C C2'b 0.3020(14) -0.0751(10) 0.6594(6) 0.0545(13) Uiso d . 1 . .
    O O2b 0.2606(9) 0.3171(9) 0.5616(4) 0.048(2) Uiso d . 1 . .
    C C12b 0.2358(14) 0.4274(12) 0.5462(9) 0.0545(13) Uiso d . 1 . .
    O O4b 0.5621(9) 0.4365(10) 0.6887(5) 0.048(2) Uiso d . 1 . .
    C C13b 0.5391(15) 0.5520(11) 0.6790(10) 0.0545(13) Uiso d . 1 . .
    Cl Cl1b 0.6117(6) 0.2041(6) 0.7267(3) 0.0545(13) Uiso d . 1 . .
    O O1b 0.4553(11) 0.0517(9) 0.6623(5) 0.048(2) Uiso d . 1 . .
    O O3b 0.2323(12) 0.0734(10) 0.5640(6) 0.048(2) Uiso d . 1 . .
    O O6b 0.2615(13) -0.0165(10) 0.7039(6) 0.048(2) Uiso d . 1 . .
    C C11b 0.1727(15) -0.0687(14) 0.7344(8) 0.0545(13) Uiso d . 1 . .
    O O5b 0.2920(14) -0.3338(10) 0.5858(6) 0.048(2) Uiso d . 1 . .
    C C10b 0.5175(15) 0.0019(15) 0.5410(7) 0.0545(13) Uiso d . 1 . .
    H H25b 0.594901 0.021226 0.55512 0.0655 Uiso d . 1 . .
    H H26b 0.524864 -0.039997 0.505551 0.0655 Uiso d . 1 . .
    H H27b 0.473252 0.071871 0.534537 0.0655 Uiso d . 1 . .
    H H28b 0.142271 -0.015394 0.762348 0.0655 Uiso d . 1 . .
    H H29b 0.110277 -0.091239 0.70869 0.0655 Uiso d . 1 . .
    H H30b 0.203261 -0.13627 0.753412 0.0655 Uiso d . 1 . .
    H H31b 0.239949 0.476713 0.579336 0.0655 Uiso d . 1 . .
    H H32b 0.292129 0.453025 0.518110 0.0655 Uiso d . 1 . .
    H H33b 0.157446 0.430859 0.530211 0.0655 Uiso d . 1 . .
    H H34b 0.458768 0.568923 0.689663 0.0655 Uiso d . 1 . .
    H H35b 0.592021 0.598518 0.701585 0.0655 Uiso d . 1 . .
    H H36b 0.550316 0.56911 0.639092 0.0655 Uiso d . 1 . .
    H H37b 0.440979 -0.216494 0.536203 0.0655 Uiso d . 1 . .
    H H38b 0.337822 -0.13426 0.526558 0.0655 Uiso d . 1 . .
    H H39b 0.207766 -0.217472 0.668074 0.0655 Uiso d . 1 . .
    H H40b 0.515327 -0.106748 0.607015 0.0655 Uiso d . 1 . .
    H H41b 0.396967 0.46347 0.612865 0.0655 Uiso d . 1 . .
loop_
    _geom_bond_atom_site_label_1
    _geom_bond_atom_site_label_2
    _geom_bond_site_symmetry_1
    _geom_bond_site_symmetry_2
    _geom_bond_distance
    _geom_bond_publ_flag
    C2a C6'a . . 1.530(15) y
    C2a C2'a . . 1.545(17) y
    C2a O1a . . 1.450(16) y
    C3a C2a . . 1.549(16) y
    C3a O3a . . 1.26(2) y
    C4a C5a . . 1.410(14) y
    C4a C9a . . 1.401(14) y
    C4a O2a . . 1.357(13) y
    C5a C6a . . 1.431(13) y
    C5a H41a . . 1 ?
    C6a C7a . . 1.411(14) y
    C6a O4a . . 1.376(15) y
    C7a C8a . . 1.383(13) y
    C8a C9a . . 1.393(13) y
    C8a O1a . . 1.375(15) y
    C9a C3a . . 1.460(15) y
    C2'a O6a . . 1.37(2) y
    C3'a C2'a . . 1.365(17) y
    C3'a H39a . . 1 ?
    C4'a C3'a . . 1.47(3) y
    C4'a O5a . . 1.24(2) y
    C5'a C4'a . . 1.54(2) y
    C5'a H37a . . 1 ?
    C5'a H38a . . 1 ?
    C6'a C5'a . . 1.549(18) y
    C6'a C10a . . 1.52(2) y
    C6'a H40a . . 1 ?
    O2a C12a . . 1.386(19) y
    C12a H31a . . 1 ?
    C12a H32a . . 1 ?
    C12a H33a . . 1 ?
    O4a C13a . . 1.440(19) y
    C13a H34a . . 1 ?
    C13a H35a . . 1 ?
    C13a H36a . . 1 ?
    O6a C11a . . 1.40(2) y
    C7a Cl1a . . 1.7400(10)
                          y
    C11a H28a . . 1 ?
    C11a H29a . . 1 ?
    C11a H30a . . 1 ?
    C10a H25a . . 1 ?
    C10a H26a . . 1 ?
    C10a H27a . . 1 ?
    C2b C6'b . . 1.542(16) y
    C2b C2'b . . 1.515(17) y
    C2b O1b . . 1.424(15) y
    C3b C2b . . 1.544(16) y
    C3b O3b . . 1.24(2) y
    C4b C5b . . 1.404(14) y
    C4b C9b . . 1.372(14) y
    C4b O2b . . 1.350(14) y
    C5b C6b . . 1.430(13) y
    C5b H41b . . 1 ?
    C6b C7b . . 1.413(14) y
    C6b O4b . . 1.369(15) y
    C7b C8b . . 1.387(13) y
    C8b C9b . . 1.384(13) y
    C8b O1b . . 1.374(15) y
    C9b C3b . . 1.457(15) y
    C2'b O6b . . 1.373(19) y
    C3'b C2'b . . 1.360(19) y
    C3'b H39b . . 1 ?
    C4'b C3'b . . 1.47(2) y
    C4'b O5b . . 1.234(19) y
    C5'b C4'b . . 1.55(2) y
    C5'b H37b . . 1 ?
    C5'b H38b . . 1 ?
    C6'b C5'b . . 1.541(18) y
    C6'b C10b . . 1.55(2) y
    C6'b H40b . . 1 ?
    O2b C12b . . 1.406(19) y
    C12b H31b . . 1 ?
    C12b H32b . . 1 ?
    C12b H33b . . 1 ?
    O4b C13b . . 1.432(18) y
    C13b H34b . . 1 ?
    C13b H35b . . 1 ?
    C13b H36b . . 1 ?
    O6b C11b . . 1.43(2) y
    C11b H28b . . 1 ?
    C11b H29b . . 1 ?
    C11b H30b . . 1 ?
    C10b H25b . . 1 ?
    C10b H26b . . 1 ?
    C10b H27b . . 1 ?
    C7b Cl1b . . 1.7300(10)
                          y
loop_
    _geom_angle_atom_site_label_1
    _geom_angle_atom_site_label_2
    _geom_angle_atom_site_label_3
    _geom_angle_site_symmetry_1
    _geom_angle_site_symmetry_2
    _geom_angle_site_symmetry_3
    _geom_angle
    _geom_angle_publ_flag
    C5a C4a C9a . . . 116.8(8) y
    C5a C4a O2a . . . 124.4(10) y
    C9a C4a O2a . . . 118.9(9) y
    C4a C5a C6a . . . 120.8(9) y
    C4a C5a H41a . . . 119.6 ?
    C6a C5a H41a . . . 119.6 ?
    C5a C6a C7a . . . 120.1(9) y
    C5a C6a O4a . . . 122.5(10) y
    C7a C6a O4a . . . 117.4(8) y
    C6a C7a C8a . . . 118.7(7) y
    C7a C8a C9a . . . 120.8(9) y
    C7a C8a O1a . . . 124.8(9) y
    C9a C8a O1a . . . 114.3(9) y
    C4a C9a C8a . . . 122.8(9) y
    C4a C9a C3a . . . 130.5(10) y
    C8a C9a C3a . . . 106.7(9) y
    C9a C3a C2a . . . 105.6(11) y
    C9a C3a O3a . . . 129.4(12) y
    C2a C3a O3a . . . 124.9(10) y
    C3a C2a C6'a . . . 112.2(9) y
    C3a C2a C2'a . . . 109.3(10) y
    C3a C2a O1a . . . 105.3(9) y
    C6'a C2a C2'a . . . 112.0(9) y
    C6'a C2a O1a . . . 107.8(9) y
    C2'a C2a O1a . . . 110.0(10) y
    C2a C6'a C5'a . . . 113.5(10) y
    C2a C6'a C10a . . . 114.5(10) y
    C2a C6'a H40a . . . 103.89 ?
    C5'a C6'a C10a . . . 112.6(11) y
    C5'a C6'a H40a . . . 106.21 ?
    C10a C6'a H40a . . . 105.06 ?
    C6'a C5'a C4'a . . . 113.2(11) y
    C6'a C5'a H37a . . . 109.47 ?
    C6'a C5'a H38a . . . 109.47 ?
    C4'a C5'a H37a . . . 109.47 ?
    C4'a C5'a H38a . . . 109.47 ?
    H37a C5'a H38a . . . 105.47 ?
    C5'a C4'a C3'a . . . 118.1(12) y
    C5'a C4'a O5a . . . 119.2(17) y
    C3'a C4'a O5a . . . 122.6(18) y
    C4'a C3'a C2'a . . . 120.2(15) y
    C4'a C3'a H39a . . . 119.9 ?
    C2'a C3'a H39a . . . 119.9 ?
    C2a C2'a C3'a . . . 124.9(14) y
    C2a C2'a O6a . . . 110.8(10) y
    C3'a C2'a O6a . . . 124.0(14) y
    C4a O2a C12a . . . 118.2(12) y
    O2a C12a H31a . . . 109.47 ?
    O2a C12a H32a . . . 109.47 ?
    O2a C12a H33a . . . 109.47 ?
    H31a C12a H32a . . . 109.47 ?
    H31a C12a H33a . . . 109.47 ?
    H32a C12a H33a . . . 109.47 ?
    C6a O4a C13a . . . 117.6(12) y
    O4a C13a H34a . . . 109.47 ?
    O4a C13a H35a . . . 109.47 ?
    O4a C13a H36a . . . 109.47 ?
    H34a C13a H35a . . . 109.47 ?
    H34a C13a H36a . . . 109.47 ?
    H35a C13a H36a . . . 109.47 ?
    C8a O1a C2a . . . 107.8(10) y
    C2'a O6a C11a . . . 117.9(13) y
    O6a C11a H28a . . . 109.47 ?
    O6a C11a H29a . . . 109.47 ?
    O6a C11a H30a . . . 109.47 ?
    H28a C11a H29a . . . 109.47 ?
    H28a C11a H30a . . . 109.47 ?
    H29a C11a H30a . . . 109.47 ?
    C6'a C10a H25a . . . 109.47 ?
    C6'a C10a H26a . . . 109.47 ?
    C6'a C10a H27a . . . 109.47 ?
    H25a C10a H26a . . . 109.47 ?
    H25a C10a H27a . . . 109.47 ?
    H26a C10a H27a . . . 109.47 ?
    C6a C7a Cl1a . . . 121.8(7) y
    C8a C7a Cl1a . . . 119.5(7) y
    C5b C4b C9b . . . 117.5(9) y
    C5b C4b O2b . . . 125.4(10) y
    C9b C4b O2b . . . 117.0(9) y
    C4b C5b C6b . . . 121.5(10) y
    C4b C5b H41b . . . 119.27 ?
    C6b C5b H41b . . . 119.27 ?
    C5b C6b C7b . . . 118.4(8) y
    C5b C6b O4b . . . 123.9(10) y
    C7b C6b O4b . . . 117.7(8) y
    C6b C7b C8b . . . 119.1(7) y
    C7b C8b C9b . . . 120.9(9) y
    C7b C8b O1b . . . 125.2(9) y
    C9b C8b O1b . . . 113.7(9) y
    C4b C9b C8b . . . 122.6(9) y
    C4b C9b C3b . . . 130.6(10) y
    C8b C9b C3b . . . 106.8(10) y
    C9b C3b C2b . . . 105.1(11) y
    C9b C3b O3b . . . 129.5(11) y
    C2b C3b O3b . . . 125.4(10) y
    C3b C2b C6'b . . . 113.1(9) y
    C3b C2b C2'b . . . 108.5(10) y
    C3b C2b O1b . . . 105.4(9) y
    C6'b C2b C2'b . . . 114.0(9) y
    C6'b C2b O1b . . . 108.4(9) y
    C2'b C2b O1b . . . 106.8(9) y
    C2b C6'b C5'b . . . 112.4(10) y
    C2b C6'b C10b . . . 113.7(10) y
    C2b C6'b H40b . . . 105.07 ?
    C5'b C6'b C10b . . . 111.6(11) y
    C5'b C6'b H40b . . . 107.52 ?
    C10b C6'b H40b . . . 106 ?
    C6'b C5'b C4'b . . . 114.0(11) y
    C6'b C5'b H37b . . . 109.47 ?
    C6'b C5'b H38b . . . 109.47 ?
    C4'b C5'b H37b . . . 109.47 ?
    C4'b C5'b H38b . . . 109.47 ?
    H37b C5'b H38b . . . 104.52 ?
    C5'b C4'b C3'b . . . 118.0(11) y
    C5'b C4'b O5b . . . 119.9(15) y
    C3'b C4'b O5b . . . 122.0(16) y
    C4'b C3'b C2'b . . . 120.8(14) y
    C4'b C3'b H39b . . . 119.61 ?
    C2'b C3'b H39b . . . 119.61 ?
    C2b C2'b C3'b . . . 124.2(13) y
    C2b C2'b O6b . . . 111.2(11) y
    C3'b C2'b O6b . . . 124.3(14) y
    C4b O2b C12b . . . 118.0(12) y
    O2b C12b H31b . . . 109.47 ?
    O2b C12b H32b . . . 109.47 ?
    O2b C12b H33b . . . 109.47 ?
    H31b C12b H32b . . . 109.47 ?
    H31b C12b H33b . . . 109.47 ?
    H32b C12b H33b . . . 109.47 ?
    C6b O4b C13b . . . 118.8(12) y
    O4b C13b H34b . . . 109.47 ?
    O4b C13b H35b . . . 109.47 ?
    O4b C13b H36b . . . 109.47 ?
    H34b C13b H35b . . . 109.47 ?
    H34b C13b H36b . . . 109.47 ?
    H35b C13b H36b . . . 109.47 ?
    C8b O1b C2b . . . 108.4(9) y
    C2'b O6b C11b . . . 115.9(13) y
    O6b C11b H28b . . . 109.47 ?
    O6b C11b H29b . . . 109.47 ?
    O6b C11b H30b . . . 109.47 ?
    H28b C11b H29b . . . 109.47 ?
    H28b C11b H30b . . . 109.47 ?
    H29b C11b H30b . . . 109.47 ?
    C6'b C10b H25b . . . 109.47 ?
    C6'b C10b H26b . . . 109.47 ?
    C6'b C10b H27b . . . 109.47 ?
    H25b C10b H26b . . . 109.47 ?
    H25b C10b H27b . . . 109.47 ?
    H26b C10b H27b . . . 109.47 ?
    C6b C7b Cl1b . . . 122.6(7) y
    C8b C7b Cl1b . . . 118.3(7) y
loop_
    _geom_torsion_atom_site_label_1
    _geom_torsion_atom_site_label_2
    _geom_torsion_atom_site_label_3
    _geom_torsion_atom_site_label_4
    _geom_torsion_site_symmetry_1
    _geom_torsion_site_symmetry_2
    _geom_torsion_site_symmetry_3
    _geom_torsion_site_symmetry_4
    _geom_torsion
    _geom_torsion_publ_flag
    C9a C4a C5a C6a . . . . 0.1(13) ?
    O2a C4a C5a C6a . . . . 179.9(9) ?
    C5a C4a C9a C8a . . . . -0.1(13) ?
    C5a C4a C9a C3a . . . . -179.1(12) ?
    O2a C4a C9a C8a . . . . -179.9(9) ?
    O2a C4a C9a C3a . . . . 0.9(17) ?
    C5a C4a O2a C12a . . . . 5.6(17) ?
    C9a C4a O2a C12a . . . . -174.3(13) ?
    C4a C5a C6a C7a . . . . -0.1(13) ?
    C4a C5a C6a O4a . . . . -180.00(5) ?
    C5a C6a C7a C8a . . . . 0.00(2) ?
    C5a C6a C7a Cl1a . . . . -180.00(4) ?
    O4a C6a C7a C8a . . . . 180.00(13) ?
    O4a C6a C7a Cl1a . . . . -0.1(11) ?
    C5a C6a O4a C13a . . . . 2.9(17) ?
    C7a C6a O4a C13a . . . . -177.1(12) ?
    C6a C7a C8a C9a . . . . 0.00(10) ?
    C6a C7a C8a O1a . . . . 176.6(9) ?
    Cl1a C7a C8a C9a . . . . -180.00(4) ?
    Cl1a C7a C8a O1a . . . . -3.4(13) ?
    C7a C8a C9a C4a . . . . 0.00(10) ?
    C7a C8a C9a C3a . . . . 179.3(10) ?
    O1a C8a C9a C4a . . . . -176.9(10) ?
    O1a C8a C9a C3a . . . . 2.4(13) ?
    C7a C8a O1a C2a . . . . 178.6(9) ?
    C9a C8a O1a C2a . . . . -4.6(13) ?
    C4a C9a C3a C2a . . . . 180.0(3) ?
    C4a C9a C3a O3a . . . . -1(3) ?
    C8a C9a C3a C2a . . . . 0.8(13) ?
    C8a C9a C3a O3a . . . . -179.9(16) ?
    C9a C3a C2a C6'a . . . . -120.3(11) ?
    C9a C3a C2a C2'a . . . . 114.8(12) ?
    C9a C3a C2a O1a . . . . -3.3(13) ?
    O3a C3a C2a C6'a . . . . 60.4(19) ?
    O3a C3a C2a C2'a . . . . -64.5(19) ?
    O3a C3a C2a O1a . . . . 177.4(15) ?
    C3a C2a C6'a C5'a . . . . -84.4(12) ?
    C3a C2a C6'a C10a . . . . 46.7(14) ?
    C2'a C2a C6'a C5'a . . . . 39.0(14) ?
    C2'a C2a C6'a C10a . . . . 170.1(11) ?
    O1a C2a C6'a C5'a . . . . 160.1(10) ?
    O1a C2a C6'a C10a . . . . -68.8(13) ?
    C3a C2a C2'a C3'a . . . . 116.9(16) ?
    C3a C2a C2'a O6a . . . . -68.4(15) ?
    C3a C2a C2'a C11a . . . . -66(2) ?
    C6'a C2a C2'a C3'a . . . . -8(2) ?
    C6'a C2a C2'a O6a . . . . 166.7(12) ?
    C6'a C2a C2'a C11a . . . . 169.0(15) ?
    O1a C2a C2'a C3'a . . . . -128.0(16) ?
    O1a C2a C2'a O6a . . . . 46.8(15) ?
    O1a C2a C2'a C11a . . . . 49(2) ?
    C3a C2a O1a C8a . . . . 4.7(13) ?
    C6'a C2a O1a C8a . . . . 124.6(10) ?
    C2'a C2a O1a C8a . . . . -113.0(10) ?
    C2a C6'a C5'a C4'a . . . . -48.9(16) ?
    C10a C6'a C5'a C4'a . . . . 179.1(13) ?
    C6'a C5'a C4'a C3'a . . . . 28(2) ?
    C6'a C5'a C4'a O5a . . . . -154.8(17) ?
    C5'a C4'a C3'a C2'a . . . . 4(3) ?
    O5a C4'a C3'a C2'a . . . . -174.0(19) ?
    C4'a C3'a C2'a C2a . . . . -14(3) ?
    C4'a C3'a C2'a O6a . . . . 171.8(17) ?
    C4'a C3'a C2'a C11a . . . . 167.7(16) ?
    C2a C2'a O6a C11a . . . . 177.2(14) ?
    C3'a C2'a O6a C11a . . . . -8(3) ?
    C2a C2'a C11a O6a . . . . -4(2) ?
    C3'a C2'a C11a O6a . . . . 173(2) ?
    C9b C4b C5b C6b . . . . 0.1(14) ?
    O2b C4b C5b C6b . . . . 179.9(9) ?
    C5b C4b C9b C8b . . . . 0.0000(18) ?
    C5b C4b C9b C3b . . . . -177.5(12) ?
    O2b C4b C9b C8b . . . . -179.9(9) ?
    O2b C4b C9b C3b . . . . 2.5(17) ?
    C5b C4b O2b C12b . . . . -2.6(17) ?
    C9b C4b O2b C12b . . . . 177.4(12) ?
    C4b C5b C6b C7b . . . . 0.00(16) ?
    C4b C5b C6b O4b . . . . 179.9(9) ?
    C5b C6b C7b C8b . . . . 0.00(3) ?
    C5b C6b C7b Cl1b . . . . -180.00(4) ?
    O4b C6b C7b C8b . . . . -180.00(3) ?
    O4b C6b C7b Cl1b . . . . 0.1(11) ?
    C5b C6b O4b C13b . . . . 6.9(17) ?
    C7b C6b O4b C13b . . . . -173.2(12) ?
    C6b C7b C8b C9b . . . . 0.1(13) ?
    C6b C7b C8b O1b . . . . 175.9(9) ?
    Cl1b C7b C8b C9b . . . . -180.00(3) ?
    Cl1b C7b C8b O1b . . . . -4.1(13) ?
    C7b C8b C9b C4b . . . . 0.00(13) ?
    C7b C8b C9b C3b . . . . 178.0(10) ?
    O1b C8b C9b C4b . . . . -176.3(9) ?
    O1b C8b C9b C3b . . . . 1.7(13) ?
    C7b C8b O1b C2b . . . . -172.7(9) ?
    C9b C8b O1b C2b . . . . 3.4(13) ?
    C4b C9b C3b C2b . . . . 172.2(10) ?
    C4b C9b C3b O3b . . . . -5(3) ?
    C8b C9b C3b C2b . . . . -5.6(13) ?
    C8b C9b C3b O3b . . . . 177.5(16) ?
    C9b C3b C2b C6'b . . . . -110.8(11) ?
    C9b C3b C2b C2'b . . . . 121.6(11) ?
    C9b C3b C2b O1b . . . . 7.5(13) ?
    O3b C3b C2b C6'b . . . . 66.3(19) ?
    O3b C3b C2b C2'b . . . . -61.3(19) ?
    O3b C3b C2b O1b . . . . -175.4(15) ?
    C3b C2b C6'b C5'b . . . . -84.2(12) ?
    C3b C2b C6'b C10b . . . . 43.7(14) ?
    C2'b C2b C6'b C5'b . . . . 40.5(14) ?
    C2'b C2b C6'b C10b . . . . 168.4(11) ?
    O1b C2b C6'b C5'b . . . . 159.3(10) ?
    O1b C2b C6'b C10b . . . . -72.8(13) ?
    C3b C2b C2'b C4'b . . . . 108.6(9) ?
    C3b C2b C2'b C3'b . . . . 105.3(16) ?
    C3b C2b C2'b O6b . . . . -68.4(14) ?
    C6'b C2b C2'b C4'b . . . . -18.5(11) ?
    C6'b C2b C2'b C3'b . . . . -21.8(19) ?
    C6'b C2b C2'b O6b . . . . 164.5(11) ?
    O1b C2b C2'b C4'b . . . . -138.3(9) ?
    O1b C2b C2'b C3'b . . . . -141.5(15) ?
    O1b C2b C2'b O6b . . . . 44.7(15) ?
    C3b C2b O1b C8b . . . . -6.7(13) ?
    C6'b C2b O1b C8b . . . . 114.7(10) ?
    C2'b C2b O1b C8b . . . . -122.0(10) ?
    C2b C6'b C5'b C4'b . . . . -45.5(15) ?
    C10b C6'b C5'b C4'b . . . . -174.5(13) ?
    C6'b C5'b C4'b C3'b . . . . 31(2) ?
    C6'b C5'b C4'b C2'b . . . . 26.0(13) ?
    C6'b C5'b C4'b O5b . . . . -151.9(17) ?
    C5'b C4'b C3'b C2'b . . . . -11(2) ?
    O5b C4'b C3'b C2'b . . . . 172.2(18) ?
    C5'b C4'b C2'b C2b . . . . -4.4(12) ?
    C5'b C4'b C2'b C3'b . . . . 170(2) ?
    C5'b C4'b C2'b O6b . . . . 169(3) ?
    C3'b C4'b C2'b C2b . . . . -175(2) ?
    C3'b C4'b C2'b O6b . . . . -1(3) ?
    O5b C4'b C2'b C2b . . . . 172(3) ?
    O5b C4'b C2'b C3'b . . . . -13(3) ?
    O5b C4'b C2'b O6b . . . . -15(5) ?
    C4'b C3'b C2'b C2b . . . . 6(2) ?
    C4'b C3'b C2'b O6b . . . . 179.3(15) ?
    C2b C2'b O6b C11b . . . . 170.6(12) ?
    C4'b C2'b O6b C11b . . . . -2(4) ?
    C3'b C2'b O6b C11b . . . . -3(2) ?
loop_
    _geom_hbond_atom_site_label_D
    _geom_hbond_atom_site_label_H
    _geom_hbond_atom_site_label_A
    _geom_hbond_site_symmetry_D
    _geom_hbond_site_symmetry_H
    _geom_hbond_site_symmetry_A
    _geom_hbond_distance_DH
    _geom_hbond_distance_HA
    _geom_hbond_distance_DA
    _geom_hbond_angle_DHA
    _geom_hbond_publ_flag
    C13a H36a O5a . . 1_545 1.00 2.54 3.28(3) 130.00 ?
    C5a H41a O5a . . 1_545 1.00 2.49 3.459(18) 162.17 ?
    C11a H28a O3a . . 4_457 1.00 2.24 3.13(2) 147.00 ?
    C11a H29a O3b . . 3_556 1.00 2.34 3.34(2) 177.00 ?
_iucr_refine_instructions_details
;
JANA FILE RT-7.m40
   82    0    0    1
 0.087387 1.000000 0.000000 0.000000 0.000000 0.000000      100000
 0.000000 0.000000                                          00
 0.000000 0.000000 0.000000 0.000000 0.000000 0.000000      000000
 0.000000 0.000000 0.000000 0.000000 0.000000 0.000000      000000
C4a       1  1     1.000000 0.166719-0.014562 0.897978
 0.054519 0.000000 0.000000 0.000000 0.000000 0.000000      0111100000
C5a       1  1     1.000000 0.096832-0.102545 0.879857
 0.054519 0.000000 0.000000 0.000000 0.000000 0.000000      0111000000
C6a       1  1     1.000000-0.001396-0.081304 0.846620
 0.054519 0.000000 0.000000 0.000000 0.000000 0.000000      0111000000
C7a       1  1     1.000000-0.029726 0.028936 0.831463
 0.054519 0.000000 0.000000 0.000000 0.000000 0.000000      0111000000
C8a       1  1     1.000000 0.039628 0.114776 0.849535
 0.054519 0.000000 0.000000 0.000000 0.000000 0.000000      0111000000
C9a       1  1     1.000000 0.135084 0.093125 0.881880
 0.054519 0.000000 0.000000 0.000000 0.000000 0.000000      0111000000
C3a       1  1     1.000000 0.188855 0.200469 0.892965
 0.054519 0.000000 0.000000 0.000000 0.000000 0.000000      0111000000
C2a       1  1     1.000000 0.113251 0.288358 0.864070
 0.054519 0.000000 0.000000 0.000000 0.000000 0.000000      0111000000
C6'a      1  1     1.000000 0.178917 0.354726 0.820645
 0.054519 0.000000 0.000000 0.000000 0.000000 0.000000      0111000000
C5'a      1  1     1.000000 0.245401 0.454959 0.844716
 0.054519 0.000000 0.000000 0.000000 0.000000 0.000000      0111000000
C4'a      1  1     1.000000 0.172729 0.528639 0.883179
 0.054519 0.000000 0.000000 0.000000 0.000000 0.000000      0111000000
C3'a      1  1     1.000000 0.077405 0.476583 0.912465
 0.054519 0.000000 0.000000 0.000000 0.000000 0.000000      0111000000
C2'a      1  1     1.000000 0.058618 0.364740 0.907891
 0.054519 0.000000 0.000000 0.000000 0.000000 0.000000      0111000000
O2a       4  1     1.000000 0.261056-0.027822 0.929498
 0.048075 0.000000 0.000000 0.000000 0.000000 0.000000      0111100000
C12a      1  1     1.000000 0.297170-0.135198 0.941120
 0.054519 0.000000 0.000000 0.000000 0.000000 0.000000      0111000000
O4a       4  1     1.000000-0.071431-0.165264 0.828235
 0.048075 0.000000 0.000000 0.000000 0.000000 0.000000      0111000000
C13a      1  1     1.000000-0.045933-0.277227 0.845628
 0.054519 0.000000 0.000000 0.000000 0.000000 0.000000      0111000000
Cla       3  1     1.000000-0.147411 0.058793 0.791413
 0.054519 0.000000 0.000000 0.000000 0.000000 0.000000      0111000000
O1a       4  1     1.000000 0.025920 0.225088 0.835862
 0.048075 0.000000 0.000000 0.000000 0.000000 0.000000      0111000000
O3a       4  1     1.000000 0.276860 0.222049 0.920228
 0.048075 0.000000 0.000000 0.000000 0.000000 0.000000      0111000000
O6a       4  1     1.000000-0.019244 0.307074 0.938832
 0.048075 0.000000 0.000000 0.000000 0.000000 0.000000      0111000000
C11a      1  1     1.000000-0.072890 0.363520 0.982002
 0.054519 0.000000 0.000000 0.000000 0.000000 0.000000      0111000000
O5a       4  1     1.000000 0.198517 0.627580 0.889361
 0.048075 0.000000 0.000000 0.000000 0.000000 0.000000      0111000000
C10a      1  1     1.000000 0.250828 0.283987 0.782065
 0.054519 0.000000 0.000000 0.000000 0.000000 0.000000      0111000000
H25a      2  1     1.000000 0.218094 0.207230 0.779848
 0.065423 0.000000 0.000000 0.000000 0.000000 0.000000      0000000000
H26a      2  1     1.000000 0.330389 0.279847 0.796438
 0.065423 0.000000 0.000000 0.000000 0.000000 0.000000      0000000000
H27a      2  1     1.000000 0.251279 0.318377 0.744545
 0.065423 0.000000 0.000000 0.000000 0.000000 0.000000      0000000000
H28a      2  1     1.000000-0.157207 0.357955 0.977504
 0.065423 0.000000 0.000000 0.000000 0.000000 0.000000      0000000000
H29a      2  1     1.000000-0.049703 0.443666 0.981469
 0.065423 0.000000 0.000000 0.000000 0.000000 0.000000      0000000000
H30a      2  1     1.000000-0.050123 0.329304 1.017905
 0.065423 0.000000 0.000000 0.000000 0.000000 0.000000      0000000000
H31a      2  1     1.000000 0.318087-0.173830 0.906058
 0.065423 0.000000 0.000000 0.000000 0.000000 0.000000      0000000000
H32a      2  1     1.000000 0.234519-0.177050 0.959752
 0.065423 0.000000 0.000000 0.000000 0.000000 0.000000      0000000000
H33a      2  1     1.000000 0.364959-0.132182 0.965935
 0.065423 0.000000 0.000000 0.000000 0.000000 0.000000      0000000000
H34a      2  1     1.000000-0.055036-0.329234 0.813750
 0.065423 0.000000 0.000000 0.000000 0.000000 0.000000      0000000000
H35a      2  1     1.000000-0.099168-0.299455 0.875807
 0.065423 0.000000 0.000000 0.000000 0.000000 0.000000      0000000000
H36a      2  1     1.000000 0.034109-0.280731 0.859403
 0.065423 0.000000 0.000000 0.000000 0.000000 0.000000      0000000000
H37a      2  1     1.000000 0.313501 0.427215 0.865208
 0.065423 0.000000 0.000000 0.000000 0.000000 0.000000      0000000000
H38a      2  1     1.000000 0.276176 0.501364 0.813925
 0.065423 0.000000 0.000000 0.000000 0.000000 0.000000      0000000000
H39a      2  1     1.000000 0.026045 0.523183 0.935847
 0.065423 0.000000 0.000000 0.000000 0.000000 0.000000      0000000000
H40a      2  1     1.000000 0.118042 0.387139 0.796770
 0.065423 0.000000 0.000000 0.000000 0.000000 0.000000      0000000000
H41a      2  1     1.000000 0.116068-0.180877 0.890342
 0.065423 0.000000 0.000000 0.000000 0.000000 0.000000      0000000000
C4b       1  1     1.000000 0.342906 0.300231 0.599576
 0.054519 0.000000 0.000000 0.000000 0.000000 0.000000      0111000000
C5b       1  1     1.000000 0.409551 0.383862 0.623857
 0.054519 0.000000 0.000000 0.000000 0.000000 0.000000      0111000000
C6b       1  1     1.000000 0.494899 0.358097 0.663874
 0.054519 0.000000 0.000000 0.000000 0.000000 0.000000      0111000000
C7b       1  1     1.000000 0.511497 0.245271 0.678909
 0.054519 0.000000 0.000000 0.000000 0.000000 0.000000      0111000000
C8b       1  1     1.000000 0.444366 0.164205 0.654244
 0.054519 0.000000 0.000000 0.000000 0.000000 0.000000      0111000000
C9b       1  1     1.000000 0.362544 0.192338 0.615641
 0.054519 0.000000 0.000000 0.000000 0.000000 0.000000      0111000000
C3b       1  1     1.000000 0.311140 0.088514 0.597030
 0.054519 0.000000 0.000000 0.000000 0.000000 0.000000      0111000000
C2b       1  1     1.000000 0.381384-0.004390 0.624899
 0.054519 0.000000 0.000000 0.000000 0.000000 0.000000      0111000000
C6'b      1  1     1.000000 0.454661-0.071518 0.583895
 0.054519 0.000000 0.000000 0.000000 0.000000 0.000000      0111000000
C5'b      1  1     1.000000 0.387247-0.166180 0.556091
 0.054519 0.000000 0.000000 0.000000 0.000000 0.000000      0111000000
C4'b      1  1     1.000000 0.313661-0.235611 0.596438
 0.054519 0.000000 0.000000 0.000000 0.000000 0.000000      0111000000
C3'b      1  1     1.000000 0.266556-0.179091 0.645177
 0.054519 0.000000 0.000000 0.000000 0.000000 0.000000      0111000000
C2'b      1  1     1.000000 0.302040-0.075153 0.659415
 0.054519 0.000000 0.000000 0.000000 0.000000 0.000000      0111000000
O2b       4  1     1.000000 0.260772 0.317008 0.561590
 0.048075 0.000000 0.000000 0.000000 0.000000 0.000000      0111000000
C12b      1  1     1.000000 0.235900 0.427276 0.546254
 0.054519 0.000000 0.000000 0.000000 0.000000 0.000000      0111000000
O4b       4  1     1.000000 0.562059 0.436553 0.688721
 0.048075 0.000000 0.000000 0.000000 0.000000 0.000000      0111000000
C13b      1  1     1.000000 0.538852 0.551927 0.678915
 0.054519 0.000000 0.000000 0.000000 0.000000 0.000000      0111000000
Clb       3  1     1.000000 0.611539 0.204106 0.726561
 0.054519 0.000000 0.000000 0.000000 0.000000 0.000000      0111000000
O1b       4  1     1.000000 0.455196 0.051472 0.662292
 0.048075 0.000000 0.000000 0.000000 0.000000 0.000000      0111000000
O3b       4  1     1.000000 0.232372 0.073451 0.563969
 0.048075 0.000000 0.000000 0.000000 0.000000 0.000000      0111000000
O6b       4  1     1.000000 0.261576-0.016431 0.703827
 0.048075 0.000000 0.000000 0.000000 0.000000 0.000000      0111000000
C11b      1  1     1.000000 0.172896-0.068557 0.734411
 0.054519 0.000000 0.000000 0.000000 0.000000 0.000000      0111000000
O5b       4  1     1.000000 0.292120-0.333924 0.585883
 0.048075 0.000000 0.000000 0.000000 0.000000 0.000000      0111000000
C10b      1  1     1.000000 0.517407 0.002067 0.540793
 0.054519 0.000000 0.000000 0.000000 0.000000 0.000000      0111000000
H25b      2  1     1.000000 0.594632 0.021774 0.554999
 0.065423 0.000000 0.000000 0.000000 0.000000 0.000000      0000000000
H26b      2  1     1.000000 0.525095-0.040024 0.505439
 0.065423 0.000000 0.000000 0.000000 0.000000 0.000000      0000000000
H27b      2  1     1.000000 0.472831 0.071756 0.534232
 0.065423 0.000000 0.000000 0.000000 0.000000 0.000000      0000000000
H28b      2  1     1.000000 0.179499-0.047312 0.774114
 0.065423 0.000000 0.000000 0.000000 0.000000 0.000000      0000000000
H29b      2  1     1.000000 0.097542-0.043648 0.719848
 0.065423 0.000000 0.000000 0.000000 0.000000 0.000000      0000000000
H30b      2  1     1.000000 0.179418-0.151289 0.730733
 0.065423 0.000000 0.000000 0.000000 0.000000 0.000000      0000000000
H31b      2  1     1.000000 0.166357 0.453067 0.566225
 0.065423 0.000000 0.000000 0.000000 0.000000 0.000000      0000000000
H32b      2  1     1.000000 0.301469 0.476513 0.555992
 0.065423 0.000000 0.000000 0.000000 0.000000 0.000000      0000000000
H33b      2  1     1.000000 0.222180 0.430692 0.505635
 0.065423 0.000000 0.000000 0.000000 0.000000 0.000000      0000000000
H34b      2  1     1.000000 0.458774 0.568977 0.689885
 0.065423 0.000000 0.000000 0.000000 0.000000 0.000000      0000000000
H35b      2  1     1.000000 0.592259 0.598668 0.701122
 0.065423 0.000000 0.000000 0.000000 0.000000 0.000000      0000000000
H36b      2  1     1.000000 0.549311 0.568737 0.638888
 0.065423 0.000000 0.000000 0.000000 0.000000 0.000000      0000000000
H37b      2  1     1.000000 0.440952-0.216607 0.536139
 0.065423 0.000000 0.000000 0.000000 0.000000 0.000000      0000000000
H38b      2  1     1.000000 0.337734-0.134447 0.526508
 0.065423 0.000000 0.000000 0.000000 0.000000 0.000000      0000000000
H39b      2  1     1.000000 0.207795-0.217553 0.668081
 0.065423 0.000000 0.000000 0.000000 0.000000 0.000000      0000000000
H40b      2  1     1.000000 0.515495-0.106642 0.606839
 0.065423 0.000000 0.000000 0.000000 0.000000 0.000000      0000000000
H41b      2  1     1.000000 0.397104 0.463264 0.612942
 0.065423 0.000000 0.000000 0.000000 0.000000 0.000000      0000000000
----------------------------   s.u. block   ----------------------------
 0.000226 0.000000 0.000000 0.000000 0.000000 0.000000
 0.000000 0.000000
 0.000000 0.000000 0.000000 0.000000 0.000000 0.000000
 0.000000 0.000000 0.000000 0.000000 0.000000 0.000000
C4a                0.000000 0.000780 0.000830 0.000323
 0.001271 0.000000 0.000000 0.000000 0.000000 0.000000
C5a                0.000000 0.000851 0.000931 0.000354
 0.001271 0.000000 0.000000 0.000000 0.000000 0.000000
C6a                0.000000 0.000760 0.000833 0.000303
 0.001271 0.000000 0.000000 0.000000 0.000000 0.000000
C7a                0.000000 0.000631 0.000813 0.000252
 0.001271 0.000000 0.000000 0.000000 0.000000 0.000000
C8a                0.000000 0.000750 0.000832 0.000364
 0.001271 0.000000 0.000000 0.000000 0.000000 0.000000
C9a                0.000000 0.000806 0.000815 0.000384
 0.001271 0.000000 0.000000 0.000000 0.000000 0.000000
C3a                0.000000 0.001196 0.000828 0.000719
 0.001271 0.000000 0.000000 0.000000 0.000000 0.000000
C2a                0.000000 0.000860 0.000798 0.000407
 0.001271 0.000000 0.000000 0.000000 0.000000 0.000000
C6'a               0.000000 0.001054 0.000977 0.000479
 0.001271 0.000000 0.000000 0.000000 0.000000 0.000000
C5'a               0.000000 0.001089 0.001145 0.000608
 0.001271 0.000000 0.000000 0.000000 0.000000 0.000000
C4'a               0.000000 0.001738 0.001130 0.001009
 0.001271 0.000000 0.000000 0.000000 0.000000 0.000000
C3'a               0.000000 0.001401 0.001048 0.000745
 0.001271 0.000000 0.000000 0.000000 0.000000 0.000000
C2'a               0.000000 0.001439 0.000941 0.000624
 0.001271 0.000000 0.000000 0.000000 0.000000 0.000000
O2a                0.000000 0.000872 0.000918 0.000411
 0.002038 0.000000 0.000000 0.000000 0.000000 0.000000
C12a               0.000000 0.001826 0.001173 0.000900
 0.001271 0.000000 0.000000 0.000000 0.000000 0.000000
O4a                0.000000 0.000910 0.000984 0.000466
 0.002038 0.000000 0.000000 0.000000 0.000000 0.000000
C13a               0.000000 0.001838 0.001137 0.000958
 0.001271 0.000000 0.000000 0.000000 0.000000 0.000000
Cla                0.000000 0.000555 0.000602 0.000280
 0.001271 0.000000 0.000000 0.000000 0.000000 0.000000
O1a                0.000000 0.001034 0.000896 0.000552
 0.002038 0.000000 0.000000 0.000000 0.000000 0.000000
O3a                0.000000 0.001147 0.001034 0.000602
 0.002038 0.000000 0.000000 0.000000 0.000000 0.000000
O6a                0.000000 0.001302 0.001012 0.000603
 0.002038 0.000000 0.000000 0.000000 0.000000 0.000000
C11a               0.000000 0.001951 0.001219 0.000756
 0.001271 0.000000 0.000000 0.000000 0.000000 0.000000
O5a                0.000000 0.001312 0.001109 0.000637
 0.002038 0.000000 0.000000 0.000000 0.000000 0.000000
C10a               0.000000 0.001312 0.001484 0.000652
 0.001271 0.000000 0.000000 0.000000 0.000000 0.000000
H25a               0.000000-0.100000-0.100000-0.100000
 0.000000 0.000000 0.000000 0.000000 0.000000 0.000000
H26a               0.000000-0.100000-0.100000-0.100000
 0.000000 0.000000 0.000000 0.000000 0.000000 0.000000
H27a               0.000000-0.100000-0.100000-0.100000
 0.000000 0.000000 0.000000 0.000000 0.000000 0.000000
H28a               0.000000-0.100000-0.100000-0.100000
 0.000000 0.000000 0.000000 0.000000 0.000000 0.000000
H29a               0.000000-0.100000-0.100000-0.100000
 0.000000 0.000000 0.000000 0.000000 0.000000 0.000000
H30a               0.000000-0.100000-0.100000-0.100000
 0.000000 0.000000 0.000000 0.000000 0.000000 0.000000
H31a               0.000000-0.100000-0.100000-0.100000
 0.000000 0.000000 0.000000 0.000000 0.000000 0.000000
H32a               0.000000-0.100000-0.100000-0.100000
 0.000000 0.000000 0.000000 0.000000 0.000000 0.000000
H33a               0.000000-0.100000-0.100000-0.100000
 0.000000 0.000000 0.000000 0.000000 0.000000 0.000000
H34a               0.000000-0.100000-0.100000-0.100000
 0.000000 0.000000 0.000000 0.000000 0.000000 0.000000
H35a               0.000000-0.100000-0.100000-0.100000
 0.000000 0.000000 0.000000 0.000000 0.000000 0.000000
H36a               0.000000-0.100000-0.100000-0.100000
 0.000000 0.000000 0.000000 0.000000 0.000000 0.000000
H37a               0.000000-0.100000-0.100000-0.100000
 0.000000 0.000000 0.000000 0.000000 0.000000 0.000000
H38a               0.000000-0.100000-0.100000-0.100000
 0.000000 0.000000 0.000000 0.000000 0.000000 0.000000
H39a               0.000000-0.100000-0.100000-0.100000
 0.000000 0.000000 0.000000 0.000000 0.000000 0.000000
H40a               0.000000-0.100000-0.100000-0.100000
 0.000000 0.000000 0.000000 0.000000 0.000000 0.000000
H41a               0.000000-0.100000-0.100000-0.100000
 0.000000 0.000000 0.000000 0.000000 0.000000 0.000000
C4b                0.000000 0.000767 0.000841 0.000351
 0.001271 0.000000 0.000000 0.000000 0.000000 0.000000
C5b                0.000000 0.000838 0.000952 0.000383
 0.001271 0.000000 0.000000 0.000000 0.000000 0.000000
C6b                0.000000 0.000728 0.000851 0.000342
 0.001271 0.000000 0.000000 0.000000 0.000000 0.000000
C7b                0.000000 0.000616 0.000834 0.000280
 0.001271 0.000000 0.000000 0.000000 0.000000 0.000000
C8b                0.000000 0.000754 0.000851 0.000370
 0.001271 0.000000 0.000000 0.000000 0.000000 0.000000
C9b                0.000000 0.000814 0.000822 0.000390
 0.001271 0.000000 0.000000 0.000000 0.000000 0.000000
C3b                0.000000 0.001318 0.000792 0.000684
 0.001271 0.000000 0.000000 0.000000 0.000000 0.000000
C2b                0.000000 0.000866 0.000783 0.000388
 0.001271 0.000000 0.000000 0.000000 0.000000 0.000000
C6'b               0.000000 0.001048 0.000983 0.000504
 0.001271 0.000000 0.000000 0.000000 0.000000 0.000000
C5'b               0.000000 0.001288 0.001083 0.000502
 0.001271 0.000000 0.000000 0.000000 0.000000 0.000000
C4'b               0.000000 0.001921 0.001094 0.000670
 0.001271 0.000000 0.000000 0.000000 0.000000 0.000000
C3'b               0.000000 0.001477 0.001109 0.000603
 0.001271 0.000000 0.000000 0.000000 0.000000 0.000000
C2'b               0.000000 0.001393 0.001013 0.000587
 0.001271 0.000000 0.000000 0.000000 0.000000 0.000000
O2b                0.000000 0.000904 0.000943 0.000422
 0.002038 0.000000 0.000000 0.000000 0.000000 0.000000
C12b               0.000000 0.001362 0.001187 0.000908
 0.001271 0.000000 0.000000 0.000000 0.000000 0.000000
O4b                0.000000 0.000930 0.000967 0.000460
 0.002038 0.000000 0.000000 0.000000 0.000000 0.000000
C13b               0.000000 0.001527 0.001111 0.000985
 0.001271 0.000000 0.000000 0.000000 0.000000 0.000000
Clb                0.000000 0.000561 0.000617 0.000284
 0.001271 0.000000 0.000000 0.000000 0.000000 0.000000
O1b                0.000000 0.001060 0.000908 0.000471
 0.002038 0.000000 0.000000 0.000000 0.000000 0.000000
O3b                0.000000 0.001185 0.000996 0.000585
 0.002038 0.000000 0.000000 0.000000 0.000000 0.000000
O6b                0.000000 0.001251 0.001026 0.000570
 0.002038 0.000000 0.000000 0.000000 0.000000 0.000000
C11b               0.000000 0.001473 0.001354 0.000754
 0.001271 0.000000 0.000000 0.000000 0.000000 0.000000
O5b                0.000000 0.001358 0.001015 0.000557
 0.002038 0.000000 0.000000 0.000000 0.000000 0.000000
C10b               0.000000 0.001465 0.001453 0.000686
 0.001271 0.000000 0.000000 0.000000 0.000000 0.000000
H25b               0.000000-0.100000-0.100000-0.100000
 0.000000 0.000000 0.000000 0.000000 0.000000 0.000000
H26b               0.000000-0.100000-0.100000-0.100000
 0.000000 0.000000 0.000000 0.000000 0.000000 0.000000
H27b               0.000000-0.100000-0.100000-0.100000
 0.000000 0.000000 0.000000 0.000000 0.000000 0.000000
H28b               0.000000-0.100000-0.100000-0.100000
 0.000000 0.000000 0.000000 0.000000 0.000000 0.000000
H29b               0.000000-0.100000-0.100000-0.100000
 0.000000 0.000000 0.000000 0.000000 0.000000 0.000000
H30b               0.000000-0.100000-0.100000-0.100000
 0.000000 0.000000 0.000000 0.000000 0.000000 0.000000
H31b               0.000000-0.100000-0.100000-0.100000
 0.000000 0.000000 0.000000 0.000000 0.000000 0.000000
H32b               0.000000-0.100000-0.100000-0.100000
 0.000000 0.000000 0.000000 0.000000 0.000000 0.000000
H33b               0.000000-0.100000-0.100000-0.100000
 0.000000 0.000000 0.000000 0.000000 0.000000 0.000000
H34b               0.000000-0.100000-0.100000-0.100000
 0.000000 0.000000 0.000000 0.000000 0.000000 0.000000
H35b               0.000000-0.100000-0.100000-0.100000
 0.000000 0.000000 0.000000 0.000000 0.000000 0.000000
H36b               0.000000-0.100000-0.100000-0.100000
 0.000000 0.000000 0.000000 0.000000 0.000000 0.000000
H37b               0.000000-0.100000-0.100000-0.100000
 0.000000 0.000000 0.000000 0.000000 0.000000 0.000000
H38b               0.000000-0.100000-0.100000-0.100000
 0.000000 0.000000 0.000000 0.000000 0.000000 0.000000
H39b               0.000000-0.100000-0.100000-0.100000
 0.000000 0.000000 0.000000 0.000000 0.000000 0.000000
H40b               0.000000-0.100000-0.100000-0.100000
 0.000000 0.000000 0.000000 0.000000 0.000000 0.000000
H41b               0.000000-0.100000-0.100000-0.100000
 0.000000 0.000000 0.000000 0.000000 0.000000 0.000000
--------------------------   Saved points   ----------------------------
    0
------------------------------------------------------------------------
JANA FILE RT-7.m41
bckgtype 1 bckgnum 20 manbckg 1 useinvx 0 wtlebail 1 uklebail 0 asymm 0 usehs 0
absor 1 mir 0.42
skipfrto 11.67 11.67
proffun 3 strain 0 cutoff 8
skipfrdl 0
end
*******************************************************************************
# Shift parameters - zero, sycos, sysin
 5.120068 0.000000 0.000000                                 100
# Background parameters
 1.243773-2.075157-2.019185 3.208586-1.569879-1.481809      111111
 2.660350-2.798714 1.971054 5.472764-7.924153-6.065749      111111
 4.564699-2.449203 1.634152 2.447872-3.380147 1.700936      111111
 4.741574 0.265820                                          11
# Cell parameters - a,b,c,alpha,beta,gamma
 11.76250 12.00313 24.27554 90.00000 90.00000 90.00000      111000
# Gaussian parameters - U,V,W,P
 0.000000 0.000000 2.440825 0.000000                        0010
# Lorentzian parameters - LX,LXe,LY,LYe
 0.000000 0.000000 2.268686 0.000000                        0010
----------------------------   s.u. block   -----------------------------------
# Shift parameters - zero, sycos, sysin
 0.012005 0.000000 0.000000
# Background parameters
 0.391348 0.519955 0.615881 0.784188 0.836224 0.897124
 1.000317 1.060758 1.125227 1.199587 1.261120 1.313655
 1.380844 1.441074 1.493369 1.523440 1.574597 1.605399
 1.640936 1.686557
# Cell parameters - a,b,c,alpha,beta,gamma
 0.000108 0.000124 0.000230 0.000000 0.000000 0.000000
# Gaussian parameters - U,V,W,P
 0.000000 0.000000 0.021747 0.000000
# Lorentzian parameters - LX,LXe,LY,LYe
 0.000000 0.000000 0.122685 0.000000
-------------------------------------------------------------------------------
JANA FILE RT-7.m50
bckgtype 1 bckgnum 20 manbckg 1 useinvx 0 wtlebail 1 uklebail 0 asymm 0 usehs 0
absor 1 mir 0.42
skipfrto 11.67 11.67
proffun 3 strain 0 cutoff 8
skipfrdl 0
end
*******************************************************************************
# Shift parameters - zero, sycos, sysin
 5.120068 0.000000 0.000000                                 100
# Background parameters
 1.243773-2.075157-2.019185 3.208586-1.569879-1.481809      111111
 2.660350-2.798714 1.971054 5.472764-7.924153-6.065749      111111
 4.564699-2.449203 1.634152 2.447872-3.380147 1.700936      111111
 4.741574 0.265820                                          11
# Cell parameters - a,b,c,alpha,beta,gamma
 11.76250 12.00313 24.27554 90.00000 90.00000 90.00000      111000
# Gaussian parameters - U,V,W,P
 0.000000 0.000000 2.440825 0.000000                        0010
# Lorentzian parameters - LX,LXe,LY,LYe
 0.000000 0.000000 2.268686 0.000000                        0010
----------------------------   s.u. block   -----------------------------------
# Shift parameters - zero, sycos, sysin
 0.012005 0.000000 0.000000
# Background parameters
 0.391348 0.519955 0.615881 0.784188 0.836224 0.897124
 1.000317 1.060758 1.125227 1.199587 1.261120 1.313655
 1.380844 1.441074 1.493369 1.523440 1.574597 1.605399
 1.640936 1.686557
# Cell parameters - a,b,c,alpha,beta,gamma
 0.000108 0.000124 0.000230 0.000000 0.000000 0.000000
# Gaussian parameters - U,V,W,P
 0.000000 0.000000 0.021747 0.000000
# Lorentzian parameters - LX,LXe,LY,LYe
 0.000000 0.000000 0.122685 0.000000
-------------------------------------------------------------------------------
;
