data_1
_audit_creation_date                               2020-03-07
_audit_creation_method                            'by CrystalStructure 4.3'

_publ_section_references
;
    ENTER OTHER REFERENCES

    Rigaku (2018). CrystalStructure. Version 4.3. 
    Rigaku Corporation, Tokyo, Japan.

    Sheldrick, G. M. (2014). Acta Cryst. (2014). A70, C1437.
    SHELXT Version 2018/2

    Sheldrick, G.M. (2008) SHELXL Version 2018/3, Acta Cryst. A64, 112-122.

    Rigaku Oxford Diffraction (2018), CrysAlisPro. version 1.171.40.14a.
    Rigaku Corporation, Tokyo, Japan

;


_chemical_formula_sum                             'C13 H17 N O3 S2'
_chemical_formula_moiety                          'C13 H17 N O3 S2'
_chemical_formula_weight                           299.40
_chemical_melting_point                            ?

#==============================================================================
# CRYSTAL DATA
_space_group_crystal_system                        monoclinic
_space_group_name_H-M_alt                         'P 1 21/n 1'
_space_group_name_Hall                            '-P 2yn'
_space_group_IT_number                             14
loop_
_space_group_symop_id
_space_group_symop_operation_xyz
1   '+X,+Y,+Z'
2   '1/2-X,1/2+Y,1/2-Z'
3   '-X,-Y,-Z'
4   '-1/2+X,-1/2-Y,-1/2+Z'
#------------------------------------------------------------------------------
_cell_length_a                                     4.7803(2)
_cell_length_b                                     25.1943(14)
_cell_length_c                                     11.4340(6)
_cell_angle_alpha                                  90.0000
_cell_angle_beta                                   92.369(5)
_cell_angle_gamma                                  90.0000
_cell_volume                                       1375.89(12)
_cell_formula_units_Z                              4
_cell_measurement_reflns_used                      5269
_cell_measurement_theta_min                        4.27
_cell_measurement_theta_max                        67.90
_cell_measurement_temperature                      173
#------------------------------------------------------------------------------
_exptl_crystal_description                         plate
_exptl_crystal_colour                              colourless
_exptl_crystal_size_max                            0.050
_exptl_crystal_size_mid                            0.050
_exptl_crystal_size_min                            0.010
_exptl_crystal_density_diffrn                      1.445
_exptl_crystal_density_meas                        ?
_exptl_crystal_density_method                     'not measured'
_exptl_crystal_F_000                               632.00
_exptl_absorpt_coefficient_mu                      3.548
_exptl_absorpt_correction_type                     multi-scan
_exptl_absorpt_process_details
;
CrysAlisPro 1.171.40.14a (Rigaku Oxford Diffraction, 2018)
Empirical absorption correction using spherical harmonics,
 implemented in SCALE3 ABSPACK scaling algorithm.
;
_exptl_absorpt_correction_T_min                    0.655
_exptl_absorpt_correction_T_max                    0.965

#==============================================================================
# EXPERIMENTAL DATA

_diffrn_ambient_temperature                        173
_diffrn_radiation_type                            'Cu K\a'
_diffrn_radiation_wavelength                       1.54184
_diffrn_measurement_device_type                   'Rigaku XtaLAB P100'
_diffrn_measurement_method                         \w
_diffrn_detector_area_resol_mean                   5.811
_diffrn_reflns_number                              14336
_diffrn_reflns_av_unetI/netI                       0.0351
_diffrn_reflns_av_R_equivalents                    0.0529
_diffrn_reflns_theta_max                           68.759
_diffrn_reflns_theta_min                           3.509
_diffrn_reflns_theta_full                          67.684
_diffrn_measured_fraction_theta_max                0.989
_diffrn_measured_fraction_theta_full               0.998
_diffrn_reflns_Laue_measured_fraction_max          0.989
_diffrn_reflns_Laue_measured_fraction_full         0.998
_diffrn_reflns_point_group_measured_fraction_max   0.989
_diffrn_reflns_point_group_measured_fraction_full  0.998
_diffrn_reflns_limit_h_min                        -3
_diffrn_reflns_limit_h_max                         5
_diffrn_reflns_limit_k_min                        -29
_diffrn_reflns_limit_k_max                         29
_diffrn_reflns_limit_l_min                        -13
_diffrn_reflns_limit_l_max                         13
_diffrn_standards_number                           0
_diffrn_standards_interval_count                   .
_diffrn_standards_decay_%                          ?
_reflns_number_total                               2521
_reflns_number_gt                                  2059
_reflns_threshold_expression                       F^2^>2.0\s(F^2^)
_reflns_Friedel_coverage          0.000
_reflns_Friedel_fraction_max      .
_reflns_Friedel_fraction_full     .

#==============================================================================
# REFINEMENT DATA

_refine_special_details
;
    Refinement was performed using all reflections. The weighted 
    R-factor (wR) and goodness of fit (S) are based on F^2^.
    R-factor (gt) are based on F. The threshold expression of
    F^2^ > 2.0 sigma(F^2^) is used only for calculating R-factor (gt).
;
_refine_ls_structure_factor_coef                   Fsqd
_refine_ls_R_factor_all                            0.0556
_refine_ls_R_factor_gt                             0.0463
_refine_ls_wR_factor_ref                           0.1406
_refine_ls_wR_factor_gt                            0.1332
_refine_ls_number_restraints                       0
_refine_ls_hydrogen_treatment                      constr
_refine_ls_number_reflns                           2521
_refine_ls_number_parameters                       173
_refine_ls_goodness_of_fit_ref                     1.061
_refine_ls_weighting_scheme                        calc
_refine_ls_weighting_details
           'w = 1/[\s^2^(Fo^2^)+(0.0878P)^2^+0.4033P] where P=(Fo^2^+2Fc^2^)/3'
_atom_sites_solution_hydrogens                     geom
_atom_sites_solution_primary                       direct
_atom_sites_solution_secondary                     difmap
_refine_ls_shift/su_max                            0.001
_refine_diff_density_max                           0.46
_refine_diff_density_min                          -0.31
_refine_ls_extinction_method                       none
_refine_ls_extinction_coef                         ?

loop_
_atom_type_symbol
_atom_type_description
_atom_type_scat_dispersion_real
_atom_type_scat_dispersion_imag
_atom_type_scat_source
  'C' 'C'  0.0181 0.0091 
;
International Tables for Crystallography
(Vol. C, Tables 4.2.6.8 and 6.1.1.4)
;
  'H' 'H'  0.0000 0.0000 
;
International Tables for Crystallography
(Vol. C, Table 6.1.1.4)
;
  'N' 'N'  0.0311 0.0180 
;
International Tables for Crystallography
(Vol. C, Tables 4.2.6.8 and 6.1.1.4)
;
  'O' 'O'  0.0492 0.0322 
;
International Tables for Crystallography
(Vol. C, Tables 4.2.6.8 and 6.1.1.4)
;
  'S' 'S'  0.3331 0.5567 
;
International Tables for Crystallography
(Vol. C, Tables 4.2.6.8 and 6.1.1.4)
;

#==============================================================================
# ATOMIC COORDINATES AND THERMAL PARAMETERS

loop_
 _atom_site_label
 _atom_site_type_symbol
 _atom_site_fract_x
 _atom_site_fract_y
 _atom_site_fract_z
 _atom_site_U_iso_or_equiv
 _atom_site_adp_type
 _atom_site_occupancy
 _atom_site_site_symmetry_order  
 _atom_site_calc_flag
 _atom_site_refinement_flags_posn
 _atom_site_refinement_flags_adp
 _atom_site_refinement_flags_occupancy
 _atom_site_disorder_assembly
 _atom_site_disorder_group
S6 S 0.40295(15) 0.92144(3) 0.44261(6) 0.0522(2) Uani 1 1 d . . . . .
S8 S 0.44891(16) 0.92071(3) 0.69601(6) 0.0527(2) Uani 1 1 d . . . . .
O2 O 0.3216(4) 0.69506(8) 0.36299(15) 0.0535(5) Uani 1 1 d . . . . .
O4 O 0.1607(3) 0.81308(7) 0.56225(14) 0.0404(4) Uani 1 1 d . . . . .
O12 O 0.2560(5) 0.69926(8) 0.75811(16) 0.0576(5) Uani 1 1 d . . . . .
N1 N 0.2541(4) 0.68726(8) 0.55934(17) 0.0415(5) Uani 1 1 d . . . . .
C2 C 0.3614(5) 0.71106(10) 0.4623(2) 0.0398(5) Uani 1 1 d . . . . .
C3 C 0.5259(5) 0.75984(9) 0.50138(19) 0.0360(5) Uani 1 1 d . . . . .
H3 H 0.720520 0.760268 0.472533 0.043 Uiso 1 1 calc R U . . .
C4 C 0.3601(5) 0.81109(9) 0.4703(2) 0.0379(5) Uani 1 1 d . . . . .
H4 H 0.272509 0.811339 0.389382 0.046 Uiso 1 1 calc R U . . .
C5 C 0.5468(5) 0.85919(9) 0.4986(2) 0.0389(5) Uani 1 1 d . . . . .
H5 H 0.737847 0.853348 0.468540 0.047 Uiso 1 1 calc R U . . .
C7 C 0.2273(6) 0.94103(11) 0.5727(2) 0.0523(7) Uani 1 1 d . . . . .
H7A H 0.199123 0.979957 0.573723 0.063 Uiso 1 1 calc R U . . .
H7B H 0.042190 0.923528 0.575203 0.063 Uiso 1 1 calc R U . . .
C9 C 0.5593(5) 0.85823(10) 0.6349(2) 0.0394(5) Uani 1 1 d . . . . .
H9 H 0.754211 0.849817 0.664303 0.047 Uiso 1 1 calc R U . . .
C10 C 0.3650(5) 0.81127(9) 0.6595(2) 0.0383(5) Uani 1 1 d . . . . .
H10 H 0.280955 0.812690 0.738072 0.046 Uiso 1 1 calc R U . . .
C11 C 0.5185(5) 0.75914(9) 0.63534(18) 0.0370(5) Uani 1 1 d . . . . .
H11 H 0.708553 0.757064 0.674996 0.044 Uiso 1 1 calc R U . . .
C12 C 0.3327(5) 0.71266(10) 0.6630(2) 0.0416(5) Uani 1 1 d . . . . .
C13 C 0.0660(6) 0.64108(11) 0.5496(3) 0.0528(7) Uani 1 1 d . . . . .
H13A H -0.052973 0.644321 0.476957 0.063 Uiso 1 1 calc R U . . .
H13B H -0.058663 0.641083 0.616586 0.063 Uiso 1 1 calc R U . . .
C14 C 0.2229(7) 0.58888(11) 0.5475(2) 0.0535(7) Uani 1 1 d . . . . .
H14A H 0.365747 0.590912 0.487414 0.064 Uiso 1 1 calc R U . . .
H14B H 0.089784 0.560326 0.524036 0.064 Uiso 1 1 calc R U . . .
C15 C 0.3666(7) 0.57412(11) 0.6643(3) 0.0577(7) Uani 1 1 d . . . . .
H15A H 0.504104 0.602071 0.686772 0.069 Uiso 1 1 calc R U . . .
H15B H 0.224916 0.572952 0.724966 0.069 Uiso 1 1 calc R U . . .
C16 C 0.5156(7) 0.52112(13) 0.6614(3) 0.0680(8) Uani 1 1 d . . . . .
H16A H 0.658796 0.522177 0.602533 0.082 Uiso 1 1 calc R U . . .
H16B H 0.379905 0.493074 0.641365 0.082 Uiso 1 1 calc R U . . .
H16C H 0.604606 0.513809 0.738480 0.082 Uiso 1 1 calc R U . . .

loop_
 _atom_site_aniso_label
 _atom_site_aniso_U_11
 _atom_site_aniso_U_22
 _atom_site_aniso_U_33
 _atom_site_aniso_U_23
 _atom_site_aniso_U_13
 _atom_site_aniso_U_12
S6 0.0602(4) 0.0508(4) 0.0453(4) 0.0084(3) -0.0028(3) 0.0033(3)
S8 0.0634(5) 0.0497(4) 0.0450(4) -0.0072(3) 0.0020(3) 0.0041(3)
O2 0.0709(12) 0.0593(11) 0.0296(9) -0.0031(7) -0.0062(8) -0.0036(9)
O4 0.0322(8) 0.0545(10) 0.0345(9) 0.0010(7) 0.0013(6) 0.0036(7)
O12 0.0829(14) 0.0561(11) 0.0350(10) 0.0023(8) 0.0187(9) -0.0022(10)
N1 0.0432(11) 0.0475(12) 0.0338(10) 0.0004(8) 0.0024(8) -0.0029(9)
C2 0.0400(12) 0.0507(14) 0.0286(11) -0.0007(10) -0.0019(9) 0.0034(10)
C3 0.0346(11) 0.0493(13) 0.0243(10) -0.0013(9) 0.0025(8) 0.0029(9)
C4 0.0358(12) 0.0509(14) 0.0269(11) 0.0017(9) -0.0013(9) 0.0025(10)
C5 0.0366(12) 0.0483(13) 0.0316(11) 0.0030(9) -0.0001(9) 0.0018(10)
C7 0.0504(15) 0.0488(15) 0.0578(17) 0.0013(12) 0.0019(12) 0.0055(12)
C9 0.0377(12) 0.0490(13) 0.0314(12) -0.0035(9) 0.0003(9) 0.0031(10)
C10 0.0390(12) 0.0511(14) 0.0250(11) -0.0008(9) 0.0035(9) 0.0029(10)
C11 0.0375(12) 0.0494(13) 0.0241(11) 0.0007(9) 0.0000(8) 0.0027(10)
C12 0.0475(13) 0.0500(14) 0.0276(12) 0.0003(10) 0.0064(10) 0.0042(11)
C13 0.0493(15) 0.0578(16) 0.0516(15) 0.0005(12) 0.0042(12) -0.0078(12)
C14 0.0598(16) 0.0526(15) 0.0482(15) -0.0028(12) 0.0030(12) -0.0078(13)
C15 0.0708(19) 0.0560(17) 0.0467(15) 0.0018(12) 0.0057(14) -0.0001(14)
C16 0.084(2) 0.0608(19) 0.0588(18) 0.0046(14) 0.0014(16) 0.0008(16)

#==============================================================================
_computing_data_collection
                                   'CrysAlisPro 1.171.40.14a (Rigaku OD, 2018)'
_computing_cell_refinement
                                   'CrysAlisPro 1.171.40.14a (Rigaku OD, 2018)'
_computing_data_reduction
                                   'CrysAlisPro 1.171.40.14a (Rigaku OD, 2018)'
_computing_structure_solution
                                      'SHELXT Version 2018/2 (Sheldrick, 2014)'
_computing_structure_refinement
                                      'SHELXL Version 2018/3 (Sheldrick, 2008)'
_computing_publication_material
                                          'CrystalStructure 4.3 (Rigaku, 2018)'
_computing_molecular_graphics                     'CrystalStructure 4.3'

#==============================================================================
# MOLECULAR GEOMETRY

_geom_special_details
;
 All esds (except the esd in the dihedral angle between two l.s. planes)
 are estimated using the full covariance matrix.  The cell esds are taken
 into account individually in the estimation of esds in distances, angles
 and torsion angles; correlations between esds in cell parameters are only
 used when they are defined by crystal symmetry.  An approximate (isotropic)
 treatment of cell esds is used for estimating esds involving l.s. planes.
;

loop_
 _geom_bond_atom_site_label_1
 _geom_bond_atom_site_label_2
 _geom_bond_distance
 _geom_bond_site_symmetry_2
 _geom_bond_publ_flag
S6 C7 1.807(3) . ?
S6 C5 1.818(2) . ?
S8 C7 1.802(3) . ?
S8 C9 1.810(2) . ?
O2 C2 1.213(3) . ?
O4 C4 1.449(3) . ?
O4 C10 1.450(3) . ?
O12 C12 1.210(3) . ?
N1 C2 1.378(3) . ?
N1 C12 1.385(3) . ?
N1 C13 1.472(3) . ?
C2 C3 1.516(3) . ?
C3 C11 1.534(3) . ?
C3 C4 1.548(3) . ?
C3 H3 1.0000 . ?
C4 C5 1.531(3) . ?
C4 H4 1.0000 . ?
C5 C9 1.557(3) . ?
C5 H5 1.0000 . ?
C7 H7A 0.9900 . ?
C7 H7B 0.9900 . ?
C9 C10 1.537(3) . ?
C9 H9 1.0000 . ?
C10 C11 1.535(3) . ?
C10 H10 1.0000 . ?
C11 C12 1.511(3) . ?
C11 H11 1.0000 . ?
C13 C14 1.515(4) . ?
C13 H13A 0.9900 . ?
C13 H13B 0.9900 . ?
C14 C15 1.522(4) . ?
C14 H14A 0.9900 . ?
C14 H14B 0.9900 . ?
C15 C16 1.514(4) . ?
C15 H15A 0.9900 . ?
C15 H15B 0.9900 . ?
C16 H16A 0.9800 . ?
C16 H16B 0.9800 . ?
C16 H16C 0.9800 . ?

loop_
 _geom_angle_atom_site_label_1
 _geom_angle_atom_site_label_2
 _geom_angle_atom_site_label_3
 _geom_angle
 _geom_angle_site_symmetry_1
 _geom_angle_site_symmetry_3
 _geom_angle_publ_flag
C7 S6 C5 97.34(12) . . ?
C7 S8 C9 96.69(12) . . ?
C4 O4 C10 96.47(16) . . ?
C2 N1 C12 113.0(2) . . ?
C2 N1 C13 122.0(2) . . ?
C12 N1 C13 125.0(2) . . ?
O2 C2 N1 124.0(2) . . ?
O2 C2 C3 127.2(2) . . ?
N1 C2 C3 108.76(19) . . ?
C2 C3 C11 104.56(18) . . ?
C2 C3 C4 110.74(19) . . ?
C11 C3 C4 101.88(17) . . ?
C2 C3 H3 112.9 . . ?
C11 C3 H3 112.9 . . ?
C4 C3 H3 112.9 . . ?
O4 C4 C5 102.39(18) . . ?
O4 C4 C3 102.03(17) . . ?
C5 C4 C3 108.86(19) . . ?
O4 C4 H4 114.1 . . ?
C5 C4 H4 114.1 . . ?
C3 C4 H4 114.1 . . ?
C4 C5 C9 101.35(18) . . ?
C4 C5 S6 113.57(16) . . ?
C9 C5 S6 111.35(16) . . ?
C4 C5 H5 110.1 . . ?
C9 C5 H5 110.1 . . ?
S6 C5 H5 110.1 . . ?
S8 C7 S6 106.74(14) . . ?
S8 C7 H7A 110.4 . . ?
S6 C7 H7A 110.4 . . ?
S8 C7 H7B 110.4 . . ?
S6 C7 H7B 110.4 . . ?
H7A C7 H7B 108.6 . . ?
C10 C9 C5 101.33(18) . . ?
C10 C9 S8 114.24(16) . . ?
C5 C9 S8 111.91(16) . . ?
C10 C9 H9 109.7 . . ?
C5 C9 H9 109.7 . . ?
S8 C9 H9 109.7 . . ?
O4 C10 C11 101.59(17) . . ?
O4 C10 C9 103.20(17) . . ?
C11 C10 C9 109.18(19) . . ?
O4 C10 H10 113.9 . . ?
C11 C10 H10 113.9 . . ?
C9 C10 H10 113.9 . . ?
C12 C11 C3 104.83(18) . . ?
C12 C11 C10 109.64(19) . . ?
C3 C11 C10 101.58(17) . . ?
C12 C11 H11 113.3 . . ?
C3 C11 H11 113.3 . . ?
C10 C11 H11 113.3 . . ?
O12 C12 N1 123.9(2) . . ?
O12 C12 C11 127.4(2) . . ?
N1 C12 C11 108.68(19) . . ?
N1 C13 C14 112.7(2) . . ?
N1 C13 H13A 109.0 . . ?
C14 C13 H13A 109.0 . . ?
N1 C13 H13B 109.0 . . ?
C14 C13 H13B 109.0 . . ?
H13A C13 H13B 107.8 . . ?
C13 C14 C15 113.9(2) . . ?
C13 C14 H14A 108.8 . . ?
C15 C14 H14A 108.8 . . ?
C13 C14 H14B 108.8 . . ?
C15 C14 H14B 108.8 . . ?
H14A C14 H14B 107.7 . . ?
C16 C15 C14 113.1(3) . . ?
C16 C15 H15A 109.0 . . ?
C14 C15 H15A 109.0 . . ?
C16 C15 H15B 109.0 . . ?
C14 C15 H15B 109.0 . . ?
H15A C15 H15B 107.8 . . ?
C15 C16 H16A 109.5 . . ?
C15 C16 H16B 109.5 . . ?
H16A C16 H16B 109.5 . . ?
C15 C16 H16C 109.5 . . ?
H16A C16 H16C 109.5 . . ?
H16B C16 H16C 109.5 . . ?

loop_
 _geom_torsion_atom_site_label_1
 _geom_torsion_atom_site_label_2
 _geom_torsion_atom_site_label_3
 _geom_torsion_atom_site_label_4
 _geom_torsion
 _geom_torsion_site_symmetry_1
 _geom_torsion_site_symmetry_2
 _geom_torsion_site_symmetry_3
 _geom_torsion_site_symmetry_4
 _geom_torsion_publ_flag
C12 N1 C2 O2 179.2(2) . . . . ?
C13 N1 C2 O2 -3.4(4) . . . . ?
C12 N1 C2 C3 -2.2(3) . . . . ?
C13 N1 C2 C3 175.3(2) . . . . ?
O2 C2 C3 C11 -177.4(2) . . . . ?
N1 C2 C3 C11 4.0(2) . . . . ?
O2 C2 C3 C4 73.6(3) . . . . ?
N1 C2 C3 C4 -105.0(2) . . . . ?
C10 O4 C4 C5 -56.96(19) . . . . ?
C10 O4 C4 C3 55.7(2) . . . . ?
C2 C3 C4 O4 78.6(2) . . . . ?
C11 C3 C4 O4 -32.2(2) . . . . ?
C2 C3 C4 C5 -173.67(18) . . . . ?
C11 C3 C4 C5 75.6(2) . . . . ?
O4 C4 C5 C9 36.6(2) . . . . ?
C3 C4 C5 C9 -70.9(2) . . . . ?
O4 C4 C5 S6 -82.88(19) . . . . ?
C3 C4 C5 S6 169.62(15) . . . . ?
C7 S6 C5 C4 93.30(19) . . . . ?
C7 S6 C5 C9 -20.35(19) . . . . ?
C9 S8 C7 S6 -38.72(16) . . . . ?
C5 S6 C7 S8 36.98(16) . . . . ?
C4 C5 C9 C10 -2.7(2) . . . . ?
S6 C5 C9 C10 118.38(17) . . . . ?
C4 C5 C9 S8 -124.84(17) . . . . ?
S6 C5 C9 S8 -3.7(2) . . . . ?
C7 S8 C9 C10 -88.34(18) . . . . ?
C7 S8 C9 C5 26.07(19) . . . . ?
C4 O4 C10 C11 -57.95(19) . . . . ?
C4 O4 C10 C9 55.2(2) . . . . ?
C5 C9 C10 O4 -32.0(2) . . . . ?
S8 C9 C10 O4 88.51(18) . . . . ?
C5 C9 C10 C11 75.5(2) . . . . ?
S8 C9 C10 C11 -164.02(15) . . . . ?
C2 C3 C11 C12 -4.2(2) . . . . ?
C4 C3 C11 C12 111.2(2) . . . . ?
C2 C3 C11 C10 -118.34(19) . . . . ?
C4 C3 C11 C10 -3.0(2) . . . . ?
O4 C10 C11 C12 -73.3(2) . . . . ?
C9 C10 C11 C12 178.18(17) . . . . ?
O4 C10 C11 C3 37.3(2) . . . . ?
C9 C10 C11 C3 -71.3(2) . . . . ?
C2 N1 C12 O12 177.9(2) . . . . ?
C13 N1 C12 O12 0.6(4) . . . . ?
C2 N1 C12 C11 -0.7(3) . . . . ?
C13 N1 C12 C11 -178.0(2) . . . . ?
C3 C11 C12 O12 -175.4(2) . . . . ?
C10 C11 C12 O12 -67.1(3) . . . . ?
C3 C11 C12 N1 3.1(3) . . . . ?
C10 C11 C12 N1 111.5(2) . . . . ?
C2 N1 C13 C14 87.1(3) . . . . ?
C12 N1 C13 C14 -95.8(3) . . . . ?
N1 C13 C14 C15 70.5(3) . . . . ?
C13 C14 C15 C16 178.4(3) . . . . ?


#==============================================================================
# Additional structures and associated data_? identifiers
# should be added at this point if there is more than one 
# structure analysis in the CIF.

_shelx_res_file
;
TITL FFAA6
    shelxl.res
    created by SHELXL-2018/3 at 21:33:24 on 07-Mar-2020
CELL  1.54184 4.78030 25.19430 11.43400 90.00000 92.36900 90.00000
ZERR  4 0.00020 0.00140 0.00060 0.00000 0.00500 0.00000
LATT 1
SYMM .50-X, .50+Y, .50-Z
SFAC C H N O S
UNIT 52 68 4 12 8
L.S. 20
FMAP 2
PLAN 5
WPDB -2
HTAB
BOND $H
CONF
LIST 4
TEMP -100.0
ACTA
SIZE 0.050 0.050 0.010
WGHT    0.087800    0.403300
FVAR       0.45607
S6    5    0.402949    0.921436    0.442612    11.00000    0.06020    0.05077 =
         0.04530    0.00843   -0.00280    0.00328
S8    5    0.448908    0.920708    0.696005    11.00000    0.06336    0.04970 =
         0.04497   -0.00717    0.00202    0.00407
O2    4    0.321556    0.695061    0.362994    11.00000    0.07092    0.05931 =
         0.02961   -0.00309   -0.00615   -0.00363
O4    4    0.160699    0.813082    0.562245    11.00000    0.03220    0.05445 =
         0.03454    0.00101    0.00128    0.00364
O12   4    0.255970    0.699256    0.758109    11.00000    0.08285    0.05614 =
         0.03502    0.00229    0.01867   -0.00219
N1    3    0.254102    0.687257    0.559344    11.00000    0.04315    0.04748 =
         0.03381    0.00041    0.00238   -0.00289
C2    1    0.361389    0.711058    0.462349    11.00000    0.03998    0.05067 =
         0.02856   -0.00070   -0.00189    0.00336
C3    1    0.525881    0.759845    0.501382    11.00000    0.03459    0.04933 =
         0.02432   -0.00127    0.00251    0.00289
AFIX  13
H3    2    0.720520    0.760268    0.472533    11.00000   -1.20000
AFIX   0
C4    1    0.360113    0.811088    0.470329    11.00000    0.03578    0.05088 =
         0.02694    0.00170   -0.00127    0.00248
AFIX  13
H4    2    0.272509    0.811339    0.389382    11.00000   -1.20000
AFIX   0
C5    1    0.546765    0.859191    0.498588    11.00000    0.03657    0.04833 =
         0.03158    0.00305   -0.00006    0.00178
AFIX  13
H5    2    0.737847    0.853348    0.468540    11.00000   -1.20000
AFIX   0
C7    1    0.227266    0.941032    0.572721    11.00000    0.05038    0.04885 =
         0.05775    0.00125    0.00186    0.00548
AFIX  23
H7A   2    0.199123    0.979957    0.573723    11.00000   -1.20000
H7B   2    0.042190    0.923528    0.575203    11.00000   -1.20000
AFIX   0
C9    1    0.559338    0.858228    0.634876    11.00000    0.03771    0.04903 =
         0.03141   -0.00351    0.00027    0.00306
AFIX  13
H9    2    0.754211    0.849817    0.664303    11.00000   -1.20000
AFIX   0
C10   1    0.364992    0.811266    0.659481    11.00000    0.03896    0.05113 =
         0.02501   -0.00075    0.00347    0.00294
AFIX  13
H10   2    0.280955    0.812690    0.738072    11.00000   -1.20000
AFIX   0
C11   1    0.518463    0.759142    0.635338    11.00000    0.03751    0.04941 =
         0.02408    0.00068   -0.00004    0.00269
AFIX  13
H11   2    0.708553    0.757064    0.674996    11.00000   -1.20000
AFIX   0
C12   1    0.332748    0.712664    0.662981    11.00000    0.04752    0.05001 =
         0.02763    0.00026    0.00643    0.00420
C13   1    0.065977    0.641076    0.549559    11.00000    0.04930    0.05777 =
         0.05159    0.00050    0.00416   -0.00781
AFIX  23
H13A  2   -0.052973    0.644321    0.476957    11.00000   -1.20000
H13B  2   -0.058663    0.641083    0.616586    11.00000   -1.20000
AFIX   0
C14   1    0.222866    0.588878    0.547510    11.00000    0.05984    0.05262 =
         0.04821   -0.00278    0.00297   -0.00781
AFIX  23
H14A  2    0.365747    0.590912    0.487414    11.00000   -1.20000
H14B  2    0.089784    0.560326    0.524036    11.00000   -1.20000
AFIX   0
C15   1    0.366608    0.574121    0.664272    11.00000    0.07077    0.05604 =
         0.04668    0.00183    0.00574   -0.00007
AFIX  23
H15A  2    0.504104    0.602071    0.686772    11.00000   -1.20000
H15B  2    0.224916    0.572952    0.724966    11.00000   -1.20000
AFIX   0
C16   1    0.515626    0.521119    0.661410    11.00000    0.08424    0.06082 =
         0.05882    0.00458    0.00140    0.00076
AFIX 137
H16A  2    0.658796    0.522177    0.602533    11.00000   -1.20000
H16B  2    0.379905    0.493074    0.641365    11.00000   -1.20000
H16C  2    0.604606    0.513809    0.738480    11.00000   -1.20000
AFIX   0
HKLF 4




REM  FFAA6
REM wR2 = 0.1406, GooF = S = 1.061, Restrained GooF = 1.061 for all data
REM R1 = 0.0463 for 2059 Fo > 4sig(Fo) and 0.0556 for all 2521 data
REM 173 parameters refined using 0 restraints

END

WGHT      0.0854      0.4487

REM Instructions for potential hydrogen bonds
EQIV $1 x+1, y, z
HTAB C3 O4_$1
HTAB C5 O4_$1
EQIV $2 x+1/2, -y+3/2, z+1/2
HTAB C9 O2_$2
HTAB C9 O4_$1
HTAB C11 O2_$2

REM Highest difference peak  0.457,  deepest hole -0.310,  1-sigma level  0.060
Q1    1   0.4569  0.8803  0.6855  11.00000  0.05    0.46
Q2    1   0.4011  0.9599  0.4445  11.00000  0.05    0.41
Q3    1   0.4426  0.9590  0.6976  11.00000  0.05    0.38
Q4    1   0.2229  0.9229  0.4578  11.00000  0.05    0.35
Q5    1   0.3946  0.8827  0.4488  11.00000  0.05    0.34
;

_shelx_res_checksum   66881

_shelx_hkl_file
;
   0  -1   0   -0.08    0.09
   0  -2   0 1451.50   69.14
   0   0   1    0.02    0.26
   0   0  -1    0.10    0.23
   0  -1  -1  624.46   31.26
   0   1  -1  664.22   31.24
   0  -1   1  673.91   31.26
   0  -2  -1   83.20    4.39
   0  -2   1  101.71    4.41
   0  -3   0    0.00    0.40
   0  -3   1   48.73    2.66
   0  -3  -1   56.99    2.63
   0  -4   0  110.15    5.35
   0   0  -2 1977.25   94.34
   0   0  -2 1973.17   94.36
   0   0   2 1991.71   94.36
   0  -1   2 2107.60   99.12
   0   1   2 2042.81   99.12
   0  -1  -2 2101.23   99.12
   0   1  -2 2074.16   99.07
   0   1  -2 2085.29   99.09
   0  -1  -2 2073.13   99.10
   0  -4   1    3.44    0.64
   0  -4  -1    2.10    0.54
   0   2  -2  294.17   14.08
   0  -2   2  289.33   14.11
   0  -2  -2  299.38   14.10
   0  -5   0    0.34    0.62
  -1   0   0   -0.06    0.31
  -1   0   0    0.32    0.60
   0   3  -2  347.53   16.59
   0  -3   2  367.47   16.64
   0  -3  -2  330.05   16.61
   1  -1   0 1327.33   62.76
  -1   1   0 1317.90   62.68
  -1  -1   0 1281.79   62.76
  -1   1   0 1280.68   62.76
  -1  -1   0 1341.46   62.71
   0  -5   1  449.35   19.94
   0  -5  -1  389.89   19.92
  -1   0   1  912.63   41.51
  -1   0   1  856.09   41.46
  -1  -2   0  110.43    4.94
   1  -2   0  105.35    4.99
  -1   2   0  101.85    4.87
   1  -1  -1 5343.87  252.60
  -1  -1   1 5252.22  252.56
  -1  -1   1 5321.53  252.54
  -1   0  -1 9999.00  470.09
  -1   0  -1 9794.26  470.04
  -1   1  -1 1349.07   64.36
  -1  -1  -1 1376.51   64.36
  -1   1  -1 1266.97   64.42
  -1  -1  -1 1382.82   64.41
   0  -4  -2  213.22   10.74
   0  -4   2  237.51   10.78
  -1  -2   1    2.55    0.44
  -1  -2   1    2.55    0.62
   1  -2  -1    1.71    0.64
   0  -6   0  750.56   35.85
  -1  -3   0  709.04   33.11
   1  -3   0  678.03   33.05
   1  -3   0  705.76   33.13
  -1  -3   0  710.13   33.11
  -1   2  -1  156.90    8.05
  -1  -2  -1  179.92    8.04
   1  -2   1  164.58    7.98
  -1   2  -1  170.64    7.98
  -1  -2  -1  157.06    7.99
   1  -3  -1  817.11   36.79
   1  -3  -1  753.99   36.67
  -1  -3   1  796.27   36.71
  -1  -3   1  779.03   36.75
   0  -6   1   41.45    2.13
   0  -6  -1   36.97    2.08
  -1  -3  -1    0.65    0.67
   1  -3   1    0.63    0.56
   1  -3   1    1.22    0.56
  -1  -3  -1    1.01    0.62
   0   0  -3   -0.08    0.78
   0   0  -3   -0.15    0.53
   0   0   3    1.56    0.75
   0   0  -3    0.17    0.53
  -1  -4   0 1379.04   62.76
  -1  -4   0 1321.04   62.75
   1  -4   0 1291.03   62.71
   1  -4   0 1302.19   62.77
   0  -5   2  104.06    4.72
   0  -5  -2   88.87    4.67
   0   1   3   36.83    2.23
   0   1  -3   45.68    2.12
   0  -1   3   45.13    2.24
   0   1  -3   40.69    2.08
   0  -1  -3   33.80    2.18
   0  -1  -3   45.08    2.15
   1   0  -2    0.08    0.67
  -1   0   2    0.24    0.50
   1  -1  -2  236.36   11.11
   1  -1  -2  247.70   11.21
  -1  -1   2  224.41   11.13
  -1  -1   2  227.93   11.10
  -1   1   2  233.39   11.11
   1  -4  -1   61.75    3.07
   1  -4  -1   57.49    2.92
   0  -2  -3  293.09   14.62
   0   2  -3  306.34   14.57
   0  -2   3  311.45   14.62
   0  -7   0   -0.35    0.77
  -1   0  -2    0.01    0.76
  -1   0  -2    1.02    0.75
   1  -2  -2  208.18    9.75
  -1  -2   2  199.23    9.72
   1  -2  -2  219.88    9.88
  -1  -2   2  207.07    9.81
   1  -4   1   92.10    4.25
   1  -4   1   85.37    4.23
  -1  -4  -1   88.37    4.29
  -1  -4  -1   79.06    4.29
   1  -1   2   74.73    3.67
  -1   1  -2   76.69    3.74
  -1   1  -2   68.69    3.65
  -1  -1  -2   67.56    3.73
  -1  -1  -2   82.11    3.70
   0  -3  -3   42.93    2.32
   0   3  -3   43.42    2.24
   0  -3   3   46.06    2.34
  -1  -5   0 1897.18   90.58
   1  -5   0 1885.01   90.51
   1  -5   0 1930.62   90.57
  -1   2  -2    4.71    0.75
  -1   2  -2    4.18    0.84
  -1  -2  -2    4.04    0.75
  -1  -2  -2    4.04    0.79
   1  -2   2    4.69    0.81
   0  -7   1  279.23   12.50
   0  -7  -1  241.67   12.47
   1  -3  -2   15.86    1.09
  -1  -3   2   14.69    1.09
   1  -3  -2   13.32    0.81
   0  -6  -2    1.64    0.74
   0  -6   2    2.12    0.80
  -1  -5   1  869.10   36.89
   1  -5  -1  893.10   36.92
  -1  -3  -2   79.07    4.00
  -1   3  -2   73.56    4.05
   1  -3   2   88.33    3.99
  -1  -3  -2   78.48    4.04
   1  -5   1   27.84    1.38
   1  -5   1   22.07    1.37
  -1  -5  -1   24.12    1.46
  -1  -5  -1   23.78    1.48
   0  -4  -3 1616.16   78.21
   0   4  -3 1666.56   78.18
   0  -4   3 1628.20   78.22
  -1  -4   2  386.43   15.69
   1  -4  -2  346.20   15.60
   1  -6   0   21.53    1.22
  -1  -6   0   23.96    1.43
   0  -8   0 4714.38  224.61
  -1  -4  -2  115.19    5.75
  -1   4  -2  100.03    5.81
  -1  -4  -2  110.90    5.78
   1  -6  -1  390.58   18.73
   1  -6  -1  349.27   18.83
   0  -7  -2   12.71    1.09
   0  -7   2   16.28    1.18
   1   0  -3  587.64   28.08
  -1   0   3  585.55   28.02
   0   5  -3  418.89   20.01
   0  -5   3  438.56   20.05
   0  -5  -3  397.70   20.03
   0  -8   1    0.96    0.98
   0  -8  -1    1.52    0.82
   1  -6   1  966.69   42.11
   1  -6   1  898.68   42.11
  -1   1   3  522.25   24.61
   1  -1  -3  515.78   24.69
   1  -1  -3  521.54   24.61
  -1  -1   3  498.41   24.62
   1  -5  -2  424.34   21.18
   1  -5  -2  480.77   21.31
  -1  -5   2  454.58   21.26
  -1  -2   3  293.32   14.51
   1  -2  -3  306.47   14.48
   1  -2  -3  307.02   14.58
  -1  -5  -2  325.13   15.79
  -1  -5  -2  327.35   15.75
   1  -5   2  326.45   15.68
   1  -5   2  332.27   15.74
  -1   0  -3 1453.33   71.80
  -1   0  -3 1548.01   71.77
  -1  -1  -3  509.34   24.94
  -1   1  -3  512.71   24.91
   1  -1   3  548.14   24.93
  -1  -1  -3  526.07   24.92
  -1   1  -3  503.17   24.94
   1  -7   0  104.55    4.82
   1  -7   0   92.00    4.88
  -1  -7   0   94.28    4.91
   1  -3  -3  418.57   20.42
  -1  -3   3  401.58   20.35
   1  -3  -3  444.86   20.32
   0   0  -4   43.68    2.06
   0   0   4   41.62    2.21
   0   0  -4   37.63    2.01
  -1   2  -3   17.45    1.38
  -1  -2  -3   20.18    1.34
   1  -2   3   19.91    1.37
  -1  -2  -3   24.02    1.36
  -1   2  -3   22.23    1.47
   0  -1  -4  297.58   13.13
   0   1  -4  288.97   13.11
   0   1  -4  261.54   13.18
   0  -1   4  278.97   13.17
   0   1   4  276.12   13.19
   0   1  -4  257.73   13.07
   0  -1  -4  253.98   13.16
   0  -6   3  461.19   20.67
   0  -6  -3  406.34   20.63
  -1  -7   1  246.07   11.71
   1  -7  -1  239.23   11.62
   0  -9   0    0.50    0.79
  -1  -6   2   60.50    3.69
   1  -6  -2   69.83    3.55
   0   2  -4   20.51    1.19
   0  -2   4   22.25    1.41
   0  -2  -4   18.61    1.36
   1  -7   1  934.28   44.66
   1  -7   1  930.71   44.65
  -1  -7  -1  943.33   44.71
   0  -8  -2    0.67    0.82
   0  -8   2    0.60    0.78
  -1   3  -3  963.88   46.34
  -1  -3  -3  922.73   46.32
  -1   3  -3  980.09   46.31
  -1  -3  -3  975.37   46.30
   1  -3   3  995.69   46.29
  -1  -4   3   11.04    1.05
   1  -4  -3   11.30    1.01
   1  -4  -3   12.17    0.85
  -1  -6  -2  758.90   36.85
   1  -6   2  802.06   36.83
   1  -6   2  757.87   36.77
   0  -9  -1  379.02   18.94
   0  -9   1  408.75   18.95
   0   3  -4  811.46   39.15
   0  -3   4  796.55   39.22
   0  -3  -4  859.84   39.23
  -1  -4  -3    0.42    0.75
  -1   4  -3    0.05    0.85
  -1  -4  -3    0.03    0.73
   1  -4   3    0.28    0.76
   1  -8   0  159.32    7.93
  -1  -8   0  171.08    8.05
   0  -7  -3    1.44    0.78
   0  -7   3    1.52    0.88
   1  -5  -3  123.91    6.25
   1  -5  -3  125.65    6.11
  -1  -5   3  128.55    6.22
   0   4  -4   68.24    3.35
   0  -4   4   68.82    3.46
   0  -4  -4   63.60    3.41
  -1  -7   2  178.72    8.92
   1  -7  -2  184.34    8.81
   1  -8  -1  310.64   15.08
  -1  -8   1  320.07   15.18
   1  -8   1  652.78   30.54
  -1  -8  -1  632.48   30.59
   1  -8   1  628.49   30.54
  -1  -7  -2  122.55    5.86
   1  -7   2  114.39    5.74
   1  -7   2  121.30    5.82
  -1   5  -3   24.95    1.66
  -1  -5  -3   24.43    1.66
   1  -5   3   29.43    1.62
  -1  -5  -3   25.48    1.57
   0 -10   0  800.96   38.34
   0  -9  -2   62.05    3.20
   0  -9   2   59.35    3.20
  -1   0   4    2.72    0.83
   1   0  -4    4.62    0.80
   1   0  -4    3.18    0.79
  -1   1   4  615.35   28.38
   1  -1  -4  584.19   28.42
  -1  -1   4  569.97   28.38
   1  -1  -4  598.59   28.36
   0  -5   4 1038.16   49.17
   0   5  -4 1021.63   49.09
   0  -5  -4 1030.58   49.14
   1  -6  -3   43.24    2.16
  -1  -6   3   40.53    2.28
   1  -6  -3   37.99    2.33
   0 -10   1  182.17    9.46
   0 -10  -1  205.27    9.48
   1  -2  -4  751.33   34.57
  -1  -2   4  713.92   34.50
   1  -2  -4  710.14   34.47
   0  -8  -3  116.73    5.90
   0  -8   3  116.52    5.94
   0  -8   3  125.49    5.95
   1  -9   0  120.78    6.37
  -1  -9   0  142.19    6.49
   1  -9   0  133.46    6.46
   1  -8  -2   13.16    0.97
   1  -8  -2   10.29    1.15
  -1  -8   2   10.50    1.20
  -1   0  -4    0.01    0.85
  -1   0  -4    0.37    0.78
  -1  -6  -3  115.54    5.77
  -1   6  -3  111.24    5.84
  -1  -6  -3  117.38    5.77
   1  -6   3  120.25    5.77
  -1   1  -4    6.62    0.90
  -1  -1  -4    7.10    0.92
  -1  -1  -4    7.16    0.93
   1  -1   4    6.68    0.97
  -1   1  -4    8.41    0.96
  -1  -3   4   53.60    3.02
   1  -3  -4   60.68    2.97
   1  -3  -4   58.52    3.06
  -2   0   0    9.96    0.64
  -2   0   0   10.92    0.97
  -2   1   0  421.74   19.66
  -2  -1   0  385.93   19.51
   2  -1   0  433.12   19.65
   2  -1   0  409.00   19.62
  -2  -1   0  425.67   19.63
  -1  -9   1 2787.79  126.68
   1  -9  -1 2651.02  126.63
   1  -9  -1 2584.04  126.58
  -1  -8  -2    7.67    1.01
  -1  -8  -2    9.55    1.08
   1  -8   2    7.64    0.93
   1  -8   2    7.46    0.66
   1  -8   2    9.77    1.06
  -1   2  -4  600.76   28.69
  -1   2  -4  596.37   28.71
  -1  -2  -4  592.70   28.71
  -1  -2  -4  613.31   28.70
   1  -2   4  616.36   28.70
  -1  -2  -4  573.71   28.68
   0  -6  -4   62.96    3.36
   0  -6   4   67.66    3.39
   0  -6   4   61.96    3.38
   0   6  -4   66.62    3.29
   2   0  -1    0.43    0.84
  -2   0   1    0.05    0.52
  -1  -9  -1 2330.17  111.40
   1  -9   1 2385.14  111.40
  -1  -9  -1 2233.12  111.41
   1  -9   1 2376.08  111.36
  -2   1   1   73.89    3.12
   2   1  -1   66.61    3.15
   2  -1  -1   72.11    3.18
   2   1  -1   71.82    3.16
  -2   2   0  372.67   17.43
   2  -2   0  380.88   17.40
   2   2   0  353.54   17.40
  -2  -2   0  342.42   17.29
  -2  -2   0  391.11   17.39
   2  -2   0  344.61   17.37
   1  -7  -3    4.20    0.97
  -1  -7   3    4.22    0.95
   1  -7  -3    3.36    0.65
   1  -7  -3    3.79    1.00
  -1  -4   4  204.37   10.10
   1  -4  -4  212.85   10.04
   1  -4  -4  203.85   10.17
  -2   0  -1    0.19    0.78
   2   0   1    0.49    0.93
  -2   0  -1   -0.28    0.52
  -2   2   1  311.61   13.66
   2  -2  -1  265.84   13.62
  -2  -2   1  308.00   13.60
   2   2  -1  255.76   13.63
  -2  -2   1  275.14   13.51
   2   2  -1  272.50   13.63
   2  -2  -1  295.04   13.66
  -1   3  -4   50.03    2.81
  -1  -3  -4   51.46    2.78
  -1   3  -4   54.01    2.82
   1  -3   4   54.10    2.81
  -1  -3  -4   51.10    2.81
  -1   3  -4   56.52    2.82
  -1  -3  -4   50.03    2.79
   1  -3   4   52.13    2.80
  -2   1  -1   92.34    4.50
  -2  -1  -1   93.98    4.53
   2   1   1   90.27    4.69
  -2  -1  -1   96.01    4.68
  -2   1  -1   86.52    4.69
   0 -10   2  139.15    7.17
   0 -10  -2  144.61    7.16
   0 -10  -2  149.82    7.19
   0 -10   2  147.60    7.20
   2  -3   0  143.99    7.05
  -2  -3   0  161.57    7.04
  -2   3   0  140.21    7.08
  -2  -3   0  147.31    6.98
   2   3   0  134.63    7.08
   2  -3   0  129.02    7.02
   0 -11   0   -0.42    0.93
   0 -11   0   -0.17    0.96
   0   0  -5    0.85    0.93
   0   0   5    0.01    0.81
   0   0  -5    0.51    0.83
   0   0   5    0.24    0.89
   0   0  -5    0.22    0.54
  -2   2  -1   72.70    3.66
  -2  -2  -1   65.76    3.48
   2   2   1   71.67    3.67
  -2   2  -1   69.75    3.42
  -2  -2  -1   72.44    3.62
   0  -1   5   42.28    2.53
   0   1  -5   47.37    2.50
   0  -1  -5   46.35    2.51
   0   1  -5   46.29    2.34
   0  -1  -5   40.82    2.33
   0   1  -5   48.31    2.52
   0  -1  -5   45.27    2.45
   0  -1   5   46.61    2.50
  -2   3   1  120.19    5.83
  -2  -3   1  113.21    5.72
  -2  -3   1  119.37    5.75
   2   3  -1  113.48    5.83
   2  -3  -1  116.79    5.82
   2   3  -1  117.21    5.86
   2  -3  -1  123.93    5.87
  -1   7  -3    4.71    0.98
   1  -7   3    7.58    0.98
  -1  -7  -3    7.47    0.92
  -1  -7  -3    7.00    0.97
   0  -9   3    8.48    1.03
   0  -9   3    6.87    1.15
   0  -9  -3    6.80    0.96
   0  -9  -3    7.87    0.98
   1  -4   4  248.72   12.03
  -1   4  -4  256.11   12.10
  -1  -4  -4  239.32   12.02
  -1   4  -4  270.58   12.06
  -1   4  -4  248.31   12.05
  -1  -4  -4  233.28   12.05
   1  -4   4  258.38   12.05
  -1  -4  -4  235.87   12.03
   0  -2   5 1289.73   62.08
   0  -2   5 1348.68   62.09
   0  -2  -5 1298.59   62.03
   0  -2  -5 1319.62   62.08
   0   2  -5 1283.09   62.09
   0   2  -5 1329.03   62.00
   0   2  -5 1238.01   62.09
   0  -2  -5 1270.96   62.07
   0 -11  -1   13.52    1.24
   0 -11   1   11.74    1.27
   0 -11   1   13.82    1.30
   0 -11  -1   12.91    1.27
  -1  -9   2   26.79    1.82
   1  -9  -2   29.95    1.68
   1  -9  -2   31.36    1.86
  -1  -9   2   26.80    1.80
   1  -5  -4  111.59    5.29
   1  -5  -4  105.70    5.42
  -1  -5   4  103.22    5.37
   0  -7  -4  362.51   17.34
   0  -7   4  341.14   17.36
   0  -7   4  383.42   17.37
   0   7  -4  350.71   17.29
   0  -7  -4  365.79   17.34
   2   0  -2  226.73   11.26
  -2   0   2  232.66   11.21
   2   0  -2  236.68   11.28
   2   3   1  148.51    7.84
  -2  -3  -1  157.20    7.84
  -2   3  -1  158.74    7.66
  -2   3  -1  157.16    7.90
  -2  -3  -1  171.68    7.78
  -2  -4   0   69.61    3.56
   2   4   0   68.80    3.67
   2  -4   0   64.70    3.58
  -2  -4   0   72.31    3.55
  -2   4   0   73.33    3.66
   2  -4   0   70.60    3.61
   1 -10   0  433.49   19.80
  -1 -10   0  414.98   19.84
  -1 -10   0  428.10   19.81
   1 -10   0  380.82   19.73
   2  -1  -2    0.38    0.91
   2   1  -2    0.27    0.87
   2  -1  -2    1.23    0.87
  -2  -1   2   -0.02    0.46
  -2  -1   2   -0.02    0.28
   2   1  -2    0.29    0.89
  -2   1   2    0.27    0.65
  -1  -9  -2    3.48    0.97
   1  -9   2    4.94    0.99
  -1  -9  -2    4.87    1.04
   1  -9   2    3.77    0.83
   1  -9   2    4.24    0.60
   2  -4  -1  540.98   27.07
  -2  -4   1  582.59   27.02
   2  -4  -1  547.63   27.10
   2   4  -1  531.60   27.08
  -2  -4   1  609.29   27.03
   2  -4  -1  581.57   27.10
   2   4  -1  535.26   27.08
   0  -3   5  135.41    6.65
   0  -3  -5  140.54    6.67
   0  -3  -5  127.51    6.62
   0  -3   5  131.34    6.65
   0   3  -5  135.35    6.53
   2   2  -2  417.81   18.59
   2  -2  -2  408.06   18.57
  -2  -2   2  416.10   18.49
   2   2  -2  379.03   18.58
  -2   2   2  423.12   18.58
   2  -2  -2  411.98   18.60
   1 -10  -1   98.91    4.79
   1 -10  -1   92.89    4.85
  -1 -10   1   94.78    4.88
  -1 -10   1   94.57    4.88
   1  -8  -3   17.52    1.19
   1  -8  -3   20.03    1.50
  -1  -8   3   17.39    1.39
   1   8  -3   19.79    1.37
  -1  -8   3   19.17    1.48
  -1 -10  -1  160.76    8.25
  -1 -10  -1  165.44    8.26
   1 -10   1  178.76    8.25
   1 -10   1  165.31    8.19
  -2  -4  -1  535.02   25.88
  -2  -4  -1  531.99   25.83
  -2   4  -1  528.50   25.93
  -2   4  -1  544.11   25.73
   2  -4   1  537.76   25.86
   2   4   1  544.02   25.90
   2  -4   1  540.75   25.87
  -1  -5  -4   78.56    4.44
   1  -5   4   91.25    4.43
  -1  -5  -4   83.59    4.41
  -1  -5  -4   84.28    4.43
  -1   5  -4   86.65    4.47
  -2   0  -2  363.85   18.15
  -2   0  -2  382.37   18.04
  -2   1  -2  206.03    9.87
  -2   1  -2  188.70    9.71
  -2  -1  -2  218.19    9.75
  -2  -1  -2  194.74    9.85
  -2  -3   2    5.15    0.65
   2   3  -2    5.82    0.96
   2  -3  -2    5.47    0.97
  -2  -3   2    6.10    0.52
   2  -3  -2    4.61    0.96
   2   3  -2    6.20    0.92
   2  -3  -2    7.01    0.91
  -2  -5   0  411.05   19.38
   2  -5   0  392.89   19.38
   2  -5   0  420.60   19.41
  -2   5   0  396.84   19.46
   2   5   0  404.30   19.44
   2  -5   0  414.13   19.40
  -2  -5   0  390.72   19.36
   2  -5   0  395.00   19.38
   0  -4  -5  101.44    5.16
   0  -4  -5  105.72    5.15
   0  -4   5  100.80    5.20
   0   4  -5  101.73    5.04
   0  -4   5  105.03    5.18
   1  -6  -4   86.39    4.57
  -1  -6   4   87.36    4.53
  -1  -6   4   87.37    4.51
   1  -6  -4   92.33    4.42
   1  -8   3  168.27    6.97
   1  -8   3  166.90    6.96
  -1  -8  -3  160.69    6.99
  -1  -8  -3  171.43    7.01
  -1   8  -3  142.45    7.04
  -2   2  -2  110.51    5.49
  -2   2  -2  108.02    5.30
  -2  -2  -2  112.04    5.33
  -2  -2  -2   99.46    5.45
   2  -5  -1   40.69    2.41
  -2  -5   1   45.82    2.35
   2   5  -1   42.15    2.43
   2  -5  -1   41.41    2.38
   2  -5  -1   45.47    2.42
  -2  -5   1   41.41    2.25
   2  -5  -1   41.51    2.38
   0 -11   2   97.19    5.05
   0 -11  -2  104.74    5.03
   0 -11  -2  111.63    5.03
   0 -11  -2   98.09    5.03
   0  -8  -4    5.53    0.97
   0  -8  -4    5.21    0.89
   0   8  -4    4.88    0.70
   0  -8   4    3.96    0.88
   0  -8   4    4.78    1.01
  -2  -4   2    0.83    0.64
   2  -4  -2    0.83    0.82
   2  -4  -2    0.70    0.86
   2  -4  -2    0.32    0.81
   2   4  -2    0.60    0.91
  -2  -4   2    0.91    0.36
   2   4  -2    0.44    0.85
   2  -4  -2    0.50    0.85
  -2   5  -1    5.59    0.57
  -2   5  -1    5.49    1.06
   2   5   1    8.42    1.16
   2  -5   1    9.72    0.98
  -2  -5  -1    5.46    0.87
  -2  -5  -1    6.05    0.92
   2  -5   1    7.47    1.06
  -2  -3  -2    0.38    0.63
  -2  -3  -2    0.44    0.77
  -2   3  -2    0.13    0.90
  -2   3  -2    0.22    0.70
   0 -10  -3  471.91   23.56
   0 -10   3  474.00   23.59
   0 -10  -3  538.17   23.60
   0 -10   3  455.06   23.59
   0 -10  -3  514.78   23.58
   0 -12   0  519.06   24.48
   0 -12   0  498.84   24.46
   1   0  -5  131.51    6.30
   1   0  -5  119.90    6.31
  -1   0   5  131.17    6.31
   1 -10  -2   17.06    1.18
  -1 -10   2   13.91    1.42
   1 -10  -2   15.48    1.39
  -1 -10   2   15.72    1.34
  -1  -6  -4   55.33    3.04
   1  -6   4   61.76    3.05
  -1   6  -4   53.74    3.10
  -1  -6  -4   53.45    3.00
   1  -6   4   60.08    3.05
   1  -1  -5 1244.03   61.27
  -1  -1   5 1235.14   61.25
   1   1  -5 1310.39   61.25
   1  -1  -5 1331.32   61.23
   0  -5  -5    1.64    0.78
   0  -5   5    2.35    0.91
   0  -5   5    2.38    0.98
   0   5  -5    1.48    0.58
   0  -5  -5    3.32    0.99
  -2  -6   0  453.57   21.05
   2  -6   0  448.21   21.05
  -2  -6   0  447.34   21.03
   2  -6   0  437.56   21.05
   2  -6   0  428.60   21.03
   2  -6   0  418.96   21.04
   2   6   0  425.54   21.08
   1  -2  -5  242.13   11.16
  -1  -2   5  222.39   11.09
  -1  -2   5  225.54   11.11
   1  -2  -5  226.77   11.06
  -1 -11   0    6.10    1.11
   1 -11   0    7.20    1.13
  -1 -11   0    5.85    1.16
   1 -11   0    5.03    0.88
   0 -12   1   39.91    2.33
   0 -12  -1   38.44    2.33
   0 -12  -1   41.23    2.26
   0 -12   1   38.22    2.32
   0 -12  -1   38.50    2.32
   1 -10   2  114.45    6.24
  -1 -10  -2  130.20    6.43
   1 -10   2  127.26    6.37
  -1 -10  -2  134.04    6.41
   1 -10   2  134.56    6.36
   1 -10   2  143.79    6.42
   2   0  -3    1.14    0.89
  -2   0   3    0.85    0.54
   2   0  -3    0.17    0.16
   2   0  -3    1.20    0.89
   1  -9  -3  882.43   43.06
  -1  -9   3  916.12   43.07
   1   9  -3  898.14   43.01
  -1  -9   3  913.15   43.07
   1  -9  -3  891.52   42.97
   2   6  -1    7.03    1.08
   2  -6  -1    4.38    0.91
   2  -6  -1    4.59    1.04
   2  -6  -1    5.22    0.96
   2  -6  -1    5.31    0.93
  -2  -6   1    4.30    1.00
   2  -1  -3  166.71    7.56
   2   1  -3  170.32    7.56
  -2  -1   3  151.53    7.36
   2   1  -3  136.47    7.35
   2   1  -3  166.86    7.54
   2  -1  -3  169.22    7.53
  -2   1   3  167.25    7.46
  -2  -1   3  146.35    7.38
  -2   4  -2   33.70    2.23
  -2  -4  -2   37.34    2.15
  -2  -4  -2   38.25    2.09
  -2   4  -2   37.99    2.00
   1  -7  -4  155.50    7.64
  -1  -7   4  145.99    7.56
   1  -7  -4  162.77    7.48
  -1  -7   4  144.31    7.56
  -2  -5   2   25.03    1.57
   2  -5  -2   23.97    1.66
   2  -5  -2   25.65    1.66
   2  -5  -2   27.56    1.71
   2   5  -2   27.74    1.76
   2  -5  -2   24.87    1.71
   2   5  -2   26.36    1.66
   1 -11  -1   15.73    1.19
   1 -11  -1   12.85    1.33
  -1 -11   1   13.98    1.36
  -1 -11   1   12.20    1.39
   2  -2  -3   37.69    2.07
  -2  -2   3   32.76    1.81
  -2   2   3   31.93    1.90
   2   2  -3   37.99    2.07
   2  -2  -3   37.27    1.99
   2   2  -3   40.69    2.06
  -2  -2   3   33.02    1.73
   1  -3  -5   77.68    3.76
   1  -3  -5   73.85    3.88
  -1  -3   5   68.76    3.85
  -1  -3   5   73.11    3.83
  -2   6  -1   75.64    3.94
   2  -6   1   86.50    4.12
  -2   6  -1   78.21    4.23
  -2  -6  -1   83.59    4.13
   2  -6   1   78.87    4.14
  -2  -6  -1   78.30    4.11
   2   6   1   92.03    4.23
  -1   0  -5 1889.05   85.78
  -1   0  -5 1812.22   85.76
  -1   0  -5 1698.76   85.75
  -1 -11  -1  124.84    6.23
   1 -11   1  144.17    6.24
   1 -11   1  126.72    6.17
  -1 -11  -1  129.47    6.26
  -1  -1  -5  871.63   40.28
  -1   1  -5  869.00   40.29
  -1   1  -5  838.43   40.27
  -1  -1  -5  806.18   40.28
  -1  -1  -5  831.18   40.27
  -1   1  -5  832.54   40.27
  -1  -9  -3  600.73   24.91
   1  -9   3  592.47   24.86
  -1  -9  -3  619.84   24.93
   1  -9   3  596.25   24.87
   0  -6   5   -0.32    0.83
   0  -6   5    0.41    0.96
   0   6  -5    0.16    0.51
   0  -6  -5    0.01    0.84
   0  -6  -5    0.14    0.87
  -1  -2  -5  143.56    7.24
   1  -2   5  150.14    7.25
  -1   2  -5  147.56    7.22
  -1  -2  -5  147.56    7.23
  -1   2  -5  150.65    7.25
  -1  -2  -5  134.04    7.21
   1  -2   5  152.79    7.25
  -1   2  -5  144.92    7.25
   2  -3  -3    8.87    1.08
   2   3  -3    8.08    1.04
   2  -3  -3    7.67    0.96
   2  -3  -3    9.34    1.06
   2  -3  -3    9.87    1.04
  -2  -3   3   10.06    0.81
   2   3  -3    7.40    1.08
   1  -7   4    6.15    0.97
  -1   7  -4    4.93    1.03
   1  -7   4    4.86    0.91
  -1  -7  -4    5.74    0.99
  -1  -7  -4    4.71    0.90
   0  -9   4  341.07   17.12
   0   9  -4  323.28   17.05
   0  -9  -4  372.08   17.10
   0  -9  -4  383.11   17.12
   0  -9   4  362.14   17.13
  -2  -5  -2   20.34    1.42
  -2  -5  -2   21.69    1.46
   2   5   2   20.19    1.58
  -2   5  -2   19.44    1.26
  -2  -5  -2   19.46    1.38
  -2   5  -2   19.17    1.55
   2  -7   0    2.96    0.90
   2  -7   0    1.23    0.68
   2  -7   0    2.26    0.85
   2   7   0    2.06    1.04
  -2  -7   0    1.00    0.96
   2  -7   0    2.69    1.03
   1  -4  -5    0.88    0.75
   1  -4  -5    0.28    0.81
  -1  -4   5    1.33    1.00
  -1  -4   5    0.50    0.87
  -2   0  -3    2.64    0.76
  -2   0  -3    2.95    0.91
  -2   1  -3  418.62   20.57
  -2   1  -3  431.58   20.69
  -2  -1  -3  435.44   20.59
  -2  -1  -3  430.56   20.68
   2   6  -2   84.19    4.19
   2  -6  -2   77.94    4.17
   2  -6  -2   72.78    4.12
  -2  -6   2   82.25    4.09
   2  -6  -2   80.33    4.15
   2   6  -2   78.99    4.11
   2  -6  -2   87.54    4.20
  -1  -3  -5  307.20   14.64
   1  -3   5  309.34   14.63
  -1   3  -5  306.44   14.64
  -1   3  -5  321.42   14.67
   1  -3   5  314.82   14.65
  -1  -3  -5  268.26   14.62
  -1  -3  -5  294.44   14.63
  -1   3  -5  298.60   14.65
   2  -7  -1  155.32    8.01
   2  -7  -1  157.58    7.99
   2   7  -1  169.20    8.03
   2  -7  -1  168.13    8.00
   2  -7  -1  173.45    8.05
  -2  -7   1  151.72    8.00
   0 -12  -2   20.67    1.47
   0 -12  -2   19.38    1.48
   0 -12   2   17.88    1.55
   0 -12  -2   19.11    1.50
   0 -12   2   20.19    1.42
   0 -12   2   16.68    1.44
   0 -11  -3    5.87    1.03
   0 -11   3    4.98    1.14
   0 -11   3    4.78    1.02
   0 -11  -3    5.73    1.08
   0 -11  -3    3.66    0.96
  -2   2  -3  242.43   11.17
  -2  -2  -3  222.57   11.18
  -2  -2  -3  221.54   11.25
  -2   2  -3  233.00   11.28
  -2  -2  -3  228.71   11.18
   2   4  -3   22.46    1.56
   2  -4  -3   22.85    1.54
  -2  -4   3   20.07    1.37
   2  -4  -3   21.32    1.42
   2  -4  -3   24.33    1.60
   2  -4  -3   22.62    1.54
   2   4  -3   24.11    1.59
   1  -8  -4  301.06   14.20
   1  -8  -4  303.69   14.08
  -1  -8   4  274.60   14.16
   1  -8  -4  293.33   14.26
  -1  -8   4  282.59   14.17
  -1 -11   2  128.21    7.07
   1 -11  -2  144.82    6.95
   1  11  -2  149.89    6.96
  -1 -11   2  130.43    7.07
   1 -11  -2  146.92    7.04
  -2   7  -1  200.55    9.74
  -2   7  -1  199.85    9.49
   2   7   1  191.90    9.67
  -2  -7  -1  194.20    9.63
   2  -7   1  209.32    9.61
   2  -7   1  198.91    9.62
   2  -7   1  189.95    9.65
  -2  -7  -1  196.44    9.64
   2  -7   1  183.15    9.47
  -2  -7  -1  220.14    9.66
   1 -10  -3   17.40    1.48
  -1 -10   3   17.68    1.54
   1 -10  -3   17.27    1.21
   1  10  -3   18.36    1.48
  -1 -10   3   18.48    1.45
   0 -13   0    0.36    0.95
   0 -13   0    0.13    1.06
   0 -13   0    0.78    0.98
   1  -5  -5   58.04    2.73
  -1  -5   5   49.44    2.81
  -1  -5   5   49.77    2.82
   1  -5  -5   47.03    2.87
  -2  -3  -3   20.63    1.43
  -2  -3  -3   19.38    1.49
  -2  -3  -3   21.43    1.40
  -2   3  -3   22.88    1.40
  -2   3  -3   23.05    1.61
   1 -11   2   69.23    3.58
   1 -11   2   70.70    3.58
  -1 -11  -2   65.06    3.63
   1 -11   2   76.62    3.67
   1 -11   2   61.92    3.44
  -1 -11  -2   71.17    3.65
  -1   4  -5   26.50    1.71
  -1  -4  -5   24.46    1.69
  -1   4  -5   23.99    1.77
  -1  -4  -5   25.88    1.72
  -1   4  -5   24.00    1.66
   1  -4   5   27.62    1.67
   1  -4   5   25.68    1.71
  -1  -4  -5   25.60    1.67
   0  -7  -5   22.80    1.56
   0   7  -5   21.76    1.30
   0  -7  -5   21.13    1.47
   0  -7   5   23.65    1.64
   0  -7   5   22.33    1.57
  -2  -6  -2    0.01    0.91
  -2   6  -2    1.56    0.64
   2   6   2   -0.66    1.12
  -2  -6  -2    0.79    0.92
   2  -6   2    1.81    0.59
  -2   6  -2    0.18    1.00
  -2  -6  -2    0.36    0.79
   2  -6   2    0.75    0.85
   1 -12   0    2.75    0.97
   1 -12   0    3.01    1.06
  -1 -12   0    3.00    1.09
   1 -12   0    0.98    0.91
  -1 -12   0    0.71    0.96
   1  -8   4  278.64   13.43
  -1  -8  -4  273.41   13.44
  -1   8  -4  269.54   13.48
   1  -8   4  286.18   13.43
  -1  -8  -4  274.40   13.44
   0 -13   1  269.49   14.15
   0 -13   1  309.02   14.11
   0 -13  -1  300.89   14.18
   0 -13  -1  292.90   14.11
   0 -13   1  283.56   14.15
   0 -13  -1  290.48   14.16
   2   5  -3   19.76    1.46
   2  -5  -3   20.52    1.46
   2   5  -3   19.56    1.42
  -2  -5   3   17.46    1.27
   2  -5  -3   18.51    1.44
   2  -5  -3   19.31    1.43
  -1 -10  -3  223.27    9.91
   1 -10   3  216.36    9.86
   1 -10   3  221.70    9.85
  -1 -10  -3  233.72    9.96
   0   0  -6  183.67    8.26
   0   0  -6  152.98    8.06
   0   0   6  158.26    8.26
   0   0  -6  173.42    8.23
   0   0   6  187.53    8.28
  -2  -8   0  893.59   32.12
   2   8   0  873.05   32.12
  -2   8   0  595.62   31.82
   2  -8   0  891.98   32.05
   2  -8   0  916.33   32.12
   2  -8   0  552.07   31.81
  -2  -8   0  837.08   32.09
   2  -8   0  870.91   32.07
   1 -12  -1  222.58   10.72
   1 -12  -1  209.58   10.68
  -1 -12   1  226.32   10.83
   1 -12  -1  227.88   10.78
  -1 -12   1  214.42   10.81
   2   7  -2   52.22    2.73
   2  -7  -2   48.32    2.70
   2  -7  -2   50.83    2.74
  -2  -7   2   49.34    2.70
   2  -7  -2   49.13    2.73
   2  -7  -2   42.49    2.63
   0  -1   6    2.12    1.07
   0  -1  -6    1.22    0.54
   0  -1   6    3.28    0.95
   0  -1  -6    2.78    0.93
   0   1  -6    2.49    0.90
   0   1  -6    2.38    1.04
   0  -1  -6    3.13    1.01
  -2  -4  -3   69.70    3.78
  -2   4  -3   74.23    3.92
  -2  -4  -3   70.11    3.77
  -2   4  -3   83.35    3.77
  -2  -4  -3   68.98    3.87
  -1 -12  -1  178.98    8.57
  -1 -12  -1  192.76    8.64
   1 -12   1  165.68    8.49
   1 -12   1  191.96    8.57
   0  10  -4    5.20    0.79
   0 -10  -4    6.21    0.98
   0 -10   4    5.91    1.14
   0 -10  -4    5.78    1.08
   0 -10   4    5.61    0.98
   2  -8  -1  363.54   16.91
   2  -8  -1  332.70   16.89
   2   8  -1  360.82   16.93
  -2  -8   1  340.56   16.90
  -2  -8   1  364.65   16.94
   2  -8  -1  352.27   16.98
   2  -8  -1  336.04   16.92
   0   2  -6   42.78    2.43
   0  -2  -6   43.06    2.46
   0  -2   6   40.32    2.48
   0   2  -6   43.73    2.48
   0  -2  -6   43.96    2.39
   0  -2  -6   40.15    2.27
   0  -2   6   42.79    2.48
  -1   5  -5  153.95    7.72
   1  -5   5  156.52    7.72
   1  -5   5  165.04    7.75
  -1   5  -5  158.87    7.77
  -1  -5  -5  151.85    7.72
  -1  -5  -5  152.28    7.71
  -1   5  -5  156.03    7.75
  -1  -6   5  691.53   34.53
   1  -6  -5  721.95   34.48
  -1  -6   5  721.34   34.57
   1  -6  -5  761.88   34.48
   1  -6  -5  683.62   34.60
   2   0  -4 1709.25   54.58
   2   0  -4 1718.16   54.65
   2  -8   1   98.57    4.68
   2   8   1  100.44    4.72
  -2  -8  -1   93.45    4.68
  -2  -8  -1   90.04    4.64
   2  -8   1   93.53    4.56
   2  -8   1   98.91    4.63
   2  -1  -4  320.18   13.38
   2   1  -4  311.63   13.41
   2  -1  -4  327.05   13.39
   2   1  -4  316.98   13.40
   2  -1  -4  244.23   13.16
   2   1  -4  279.58   13.22
   2  -1  -4  316.90   13.43
  -2  -1   4  300.80   13.25
  -2   1   4  236.18   13.21
   1  -9  -4   13.93    1.41
   1  -9  -4   13.02    1.34
  -1  -9   4   15.80    1.32
  -1  -9   4   12.77    1.37
   1  -9  -4   15.59    1.13
   2  -7   2   26.56    1.61
   2  -7   2   23.67    1.46
  -2  -7  -2   21.83    1.62
  -2  -7  -2   26.65    1.71
  -2   7  -2   26.18    1.50
  -2  -7  -2   24.10    1.64
  -2   7  -2   22.54    1.78
   2   7   2   29.59    1.80
   0   3  -6   99.67    5.30
   0  -3  -6  103.44    5.30
   0  -3  -6   92.03    5.19
   0   3  -6  103.84    5.34
   0   3  -6  111.80    5.15
   0  -3   6  109.12    5.34
   0  -3  -6  111.51    5.31
   0  -3   6  104.77    5.33
   2  -6  -3   73.08    3.72
   2   6  -3   68.36    3.62
   2  -6  -3   72.42    3.68
   2  -6  -3   62.75    3.62
   2   6  -3   69.23    3.65
  -2  -6   3   69.00    3.57
  -2   2   4    8.57    0.74
   2  -2  -4    6.42    0.39
   2  -2  -4    7.84    1.07
   2  -2  -4    7.46    1.01
   2  -2  -4    9.09    1.17
   2   2  -4    7.14    1.08
   2   2  -4    7.39    1.01
  -2  -2   4   10.54    0.76
   0  -8   5  105.15    5.31
   0   8  -5   99.33    5.13
   0  -8   5  105.73    5.29
   0  -8  -5  104.55    5.25
   0  -8  -5  107.40    5.25
  -2  -5  -3  167.13    8.32
  -2   5  -3  180.90    8.28
  -2  -5  -3  168.67    8.33
  -2  -5  -3  165.69    8.36
  -2   5  -3  159.27    8.43
   0 -12   3   33.19    2.14
   0 -12  -3   38.99    2.15
   0 -12   3   32.36    2.19
   0 -12  -3   32.19    2.11
   0 -12  -3   34.13    2.13
   0 -13  -2    9.57    1.22
   0 -13   2    8.94    1.31
   0 -13  -2   10.00    1.19
   0 -13   2    7.93    1.17
   0 -13  -2    9.22    1.19
   1  12  -2   34.29    2.04
  -1 -12   2   35.55    2.26
   1 -12  -2   38.54    2.23
   1 -12  -2   34.13    2.05
   1 -12  -2   35.47    2.04
  -1 -12   2   35.03    2.21
   1 -11  -3   35.67    1.94
   1  11  -3   31.65    2.00
  -1 -11   3   31.93    2.18
   1 -11  -3   30.18    1.91
   1 -11  -3   32.45    2.11
  -1 -11   3   34.24    2.10
   1  -6   5   30.68    1.94
  -1   6  -5   30.45    1.87
   1  -6   5   30.67    1.88
  -1  -6  -5   30.20    1.86
  -1  -6  -5   29.17    1.89
   2   3  -4  194.70    9.14
   2  -3  -4  175.47    9.10
   2  -3  -4  201.59    9.23
   2   3  -4  177.64    9.12
  -2  -3   4  189.86    9.02
   2  -3  -4  176.33    9.06
   2  -3  -4  188.15    9.15
   1  -9   4    0.76    0.84
  -1  -9  -4    0.62    0.88
  -1  -9  -4    0.92    0.96
  -1   9  -4    0.88    0.86
   1  -9   4    0.72    0.95
   2  -8  -2   73.03    3.65
   2  -8  -2   62.30    3.52
   2   8  -2   75.81    3.62
  -2  -8   2   60.62    3.53
  -2  -8   2   66.28    3.59
   2  -8  -2   68.28    3.62
   0  -4  -6   32.16    1.92
   0   4  -6   28.76    1.93
   0  -4  -6   29.49    1.84
   0  -4   6   29.94    1.90
   0   4  -6   31.41    2.03
   0   4  -6   30.26    1.63
   0  -4  -6   28.31    1.79
   0  -4   6   32.56    2.01
  -2  -9   0 1738.39   72.02
   2   9   0 1837.82   72.03
   2  -9   0 1715.09   72.02
   2  -9   0 1794.30   71.99
   2  -9   0 1717.03   72.03
  -2  -9   0 1696.07   72.04
   2  -9   0 1797.63   71.96
   1 -12   2   84.11    4.89
  -1 -12  -2   99.84    5.09
  -1 -12  -2  102.03    5.11
   1 -12   2   98.15    5.03
   1 -12   2  103.06    5.02
   1 -12   2  118.92    5.12
  -1  -7   5   22.65    1.73
   1  -7  -5   23.15    1.67
  -1  -7   5   23.72    1.66
   1  -7  -5   26.24    1.49
   1  -7  -5   24.21    1.54
  -2  -9   1   24.05    1.75
   2  -9  -1   26.43    1.71
   2  -9  -1   25.46    1.72
   2   9  -1   27.04    1.79
   2  -9  -1   26.47    1.80
   2  -9  -1   25.70    1.71
  -2  -9   1   23.74    1.74
  -1 -11  -3   52.56    2.72
   1  11   3   46.74    2.57
   1 -11   3   53.02    2.59
   1 -11   3   52.52    2.61
   0 -14   0  808.42   39.33
   0 -14   0  807.66   39.26
   0 -14   0  849.41   39.37
  -2   0  -4 2049.39   96.73
  -2   0  -4 2072.08   96.64
  -2   0  -4 1963.31   96.63
  -1 -13   0 1037.23   49.84
   1 -13   0 1011.55   49.77
   1 -13   0 1067.16   49.82
  -1 -13   0 1094.03   49.87
   1 -13   0 1012.05   49.76
  -2  -6  -3   85.62    4.79
   2  -6   3   98.51    4.69
   2  -6   3   96.87    4.69
  -2   6  -3   99.31    4.72
  -2  -6  -3   88.18    4.75
  -2  -6  -3   90.71    4.75
  -2   6  -3   89.47    4.89
  -2   6  -3   96.15    4.70
   1   0  -6    0.68    0.96
  -1   0   6    0.23    0.82
   1   0  -6    0.50    0.76
  -1   0   6    0.61    0.95
   2   4  -4  129.94    6.35
   2  -4  -4  125.59    6.35
  -2  -4   4  125.80    6.25
   2  -4  -4  140.74    6.45
   2   4  -4  115.58    6.34
  -2   1  -4  128.31    6.62
  -2  -1  -4  136.19    6.64
  -2  -1  -4  144.72    6.66
  -2  -1  -4  129.50    6.73
  -2   1  -4  125.14    6.71
  -2   1  -4  138.36    6.66
  -1  -1   6   24.63    1.73
   1  -1  -6   30.50    1.74
   1  -1  -6   26.14    1.67
   1   1  -6   27.06    1.74
   1   1  -6   29.19    1.79
  -1  -1   6   25.84    1.78
   1  -1  -6   28.67    1.79
   2   7  -3   16.81    1.43
  -2  -7   3   16.63    1.40
  -2  -7   3   15.20    1.24
   2  -7  -3   17.14    1.41
   2   7  -3   15.82    1.31
   2  -7  -3   15.87    1.39
   2  -7  -3   19.20    1.45
  -2  -8  -2  206.17    9.83
  -2   8  -2  213.66    9.71
   2  -8   2  196.11    9.67
  -2  -8  -2  194.52    9.80
   2   8   2  195.89    9.83
   2  -8   2  192.03    9.76
  -2   8  -2  195.75    9.91
   0 -11  -4  241.03   11.41
   0 -11   4  217.81   11.41
   0 -11  -4  254.65   11.46
   0 -11  -4  233.83   11.44
   0 -11   4  221.54   11.41
  -2  -9  -1   26.11    1.77
   2  -9   1   25.25    1.57
   2   9   1   26.62    1.81
   2  -9   1   20.93    1.40
  -2  -9  -1   28.98    1.84
   2  -9   1   28.67    1.68
   2  -9   1   26.99    1.79
   0  -5  -6   21.69    1.52
   0  -5   6   18.51    1.51
   0  -5   6   20.55    1.60
   0   5  -6   18.31    1.15
   0  -5  -6   21.73    1.45
   1 -13  -1   35.03    2.22
  -1 -13   1   36.23    2.29
   1 -13  -1   31.94    2.09
   1 -13  -1   34.91    2.06
  -1 -13   1   35.92    2.27
  -2  -2  -4    1.53    0.87
  -2  -2  -4    1.01    0.96
  -2   2  -4    0.65    0.90
  -2  -2  -4    1.44    0.78
  -2   2  -4    0.71    0.91
  -2   2  -4    0.47    0.99
   0 -14   1    1.00    0.98
   0 -14   1    0.56    0.99
   0 -14  -1    0.33    1.09
   0 -14  -1    0.11    0.97
   0 -14  -1    0.41    0.98
   0 -14   1    0.37    1.08
   1  -2  -6   74.25    4.01
   1   2  -6   74.63    4.01
  -1  -2   6   75.90    4.09
   1  -2  -6   81.13    4.01
   1   2  -6   80.78    4.06
  -1  -2   6   71.99    4.04
   1  -2  -6   84.31    4.00
   1 -10  -4  701.12   34.47
  -1 -10   4  705.18   34.37
   1 -10  -4  730.26   34.29
   1 -10  -4  729.95   34.30
   1 -10  -4  696.56   34.39
  -1 -10   4  715.56   34.40
   0  -9   5    1.37    0.93
   0  -9   5    1.94    1.06
   0   9  -5    2.05    0.60
   0  -9  -5    2.06    0.93
   0  -9  -5    1.69    0.85
  -1 -13  -1   19.54    1.70
   1 -13   1   19.75    1.49
   1 -13   1   18.93    1.53
  -1 -13  -1   23.41    1.67
   1 -13   1   21.36    1.61
  -1  -7  -5   23.52    1.58
  -1  -7  -5   23.41    1.65
   1  -7   5   22.60    1.61
   1  -7   5   25.14    1.69
  -1   7  -5   23.33    1.62
  -2  -3  -4  424.83   21.66
  -2   3  -4  472.94   21.67
  -2   3  -4  433.08   21.76
  -2  -3  -4  451.19   21.67
  -2  -3  -4  426.41   21.74
  -2   3  -4  483.30   21.67
   1   3  -6  213.33   10.27
   1   3  -6  204.97   10.24
   1  -3  -6  218.55   10.20
  -1  -3   6  203.48   10.25
   1  -3  -6  207.53   10.28
  -1  -3   6  197.29   10.24
   1  -3  -6  215.26   10.20
   2   5  -4  105.31    5.37
  -2  -5   4  105.83    5.31
   2  -5  -4  100.46    5.40
   2   5  -4  101.79    5.41
   2  -5  -4  120.70    5.54
   2  -9  -2   42.38    2.34
  -2  -9   2   35.48    2.33
   2  -9  -2   39.28    2.42
   2  -9  -2   39.72    2.38
  -2  -9   2   40.48    2.41
   2   9  -2   42.67    2.38
  -1  -8   5   -0.09    0.91
   1  -8  -5    0.82    0.86
  -1  -8   5    0.70    1.01
   1  -8  -5    0.23    0.88
   1  -8  -5    1.19    0.70
  -1   0  -6   -0.28    0.84
  -1   0  -6    0.74    0.78
  -1   0  -6    0.90    1.03
   1 -10   4 1141.80   53.76
  -1 -10  -4 1094.18   53.78
  -1 -10  -4 1095.39   53.76
   1 -10   4 1163.66   53.75
  -1  10  -4 1115.84   53.81
  -1   1  -6   34.36    1.84
  -1  -1  -6   32.58    1.84
  -1  -1  -6   32.41    1.73
  -1   1  -6   32.71    1.73
  -1  -1  -6   31.55    1.83
  -1   1  -6   30.83    1.87
  -2  -7  -3  482.72   23.99
   2  -7   3  509.86   23.93
  -2   7  -3  498.53   23.94
  -2   7  -3  522.33   23.94
   2  -7   3  501.26   23.93
  -2  -7  -3  477.53   24.02
  -2   7  -3  476.93   24.10
  -2  -7  -3  503.79   24.01
   2  -7   3  492.32   23.98
   0  -6  -6   17.43    1.35
   0   6  -6   17.42    1.04
   0  -6   6   15.48    1.42
   0  -6   6   18.85    1.54
   0  -6  -6   19.13    1.45
  -2 -10   0  615.79   25.98
   2 -10   0  613.34   25.88
   2 -10   0  614.88   25.98
   2  10   0  632.46   25.98
   2 -10   0  584.86   25.97
  -2 -10   0  645.22   26.01
   2 -10   0  608.93   25.92
  -1  -2  -6    8.25    1.04
  -1   2  -6    6.06    1.14
  -1  -2  -6    6.86    0.96
  -1   2  -6    6.65    0.98
  -1   2  -6    7.22    0.93
  -1  -2  -6    5.57    1.11
   1 -12  -3   50.09    2.52
   1 -12  -3   42.88    2.64
   1 -12  -3   44.20    2.48
  -1 -12   3   40.50    2.61
  -1 -12   3   43.44    2.72
   0 -13  -3   37.87    2.33
   0 -13   3   35.65    2.30
   0 -13   3   36.13    2.41
   0 -13  -3   38.66    2.30
   0 -13  -3   40.18    2.32
  -2   4  -4   35.39    1.89
  -2   4  -4   31.46    1.91
  -2   4  -4   29.29    1.99
  -2  -4  -4   29.66    1.93
  -2  -4  -4   28.59    1.92
  -2  -4  -4   29.30    1.87
  -1  -4   6   -0.40    1.09
   1  -4  -6    0.35    0.82
   1  -4  -6   -0.44    0.88
  -1  -4   6   -0.56    0.93
   1  -4  -6   -0.54    0.79
  -2  -8   3    7.49    1.19
  -2  -8   3    6.83    1.06
   2  -8  -3    7.58    1.08
   2  -8  -3    8.27    1.03
   2  -8  -3    8.80    1.19
   2   8  -3    7.87    1.12
  -2 -10   1  498.84   22.35
   2 -10  -1  446.54   22.25
   2 -10  -1  466.63   22.32
  -2 -10   1  463.78   22.29
   2 -10  -1  457.03   22.22
   2  10  -1  463.64   22.28
   2 -10  -1  444.01   22.28
  -1 -13   2  340.66   16.27
   1  13  -2  306.63   16.10
   1 -13  -2  345.49   16.25
   1 -13  -2  346.05   16.16
  -1 -13   2  343.68   16.28
   1 -13  -2  334.52   16.15
   0 -14  -2    1.73    1.11
   0 -14   2    1.35    1.19
   0 -14  -2    1.82    1.06
   0 -14   2    1.57    1.03
   0 -14  -2    3.08    1.04
   2   9   2  164.62    7.53
  -2   9  -2  150.53    7.60
   2  -9   2  148.70    7.51
   2  -9   2  161.71    7.44
  -2  -9  -2  148.55    7.51
   2  -9   2  134.32    7.32
  -2  -9  -2  156.04    7.52
  -2  -6   4  282.01   14.14
  -2  -6   4  292.27   14.15
   2   6  -4  291.82   14.18
   2  -6  -4  284.92   14.21
   2   6  -4  289.29   14.21
   2  -6  -4  324.52   14.34
   1  -3   6   44.99    2.59
  -1  -3  -6   44.78    2.59
  -1   3  -6   45.62    2.51
  -1   3  -6   43.98    2.55
  -1   3  -6   45.23    2.61
  -1  -3  -6   38.24    2.50
   1  -3   6   46.43    2.56
  -1  -3  -6   47.70    2.54
   2 -10   1   50.85    2.64
  -2 -10  -1   49.30    2.78
   2  10   1   53.44    2.81
   2 -10   1   51.47    2.81
  -2 -10  -1   54.40    2.83
   2 -10   1   51.42    2.69
   1 -13   2   76.06    3.33
  -1 -13  -2   73.45    3.38
   1 -13   2   55.23    3.21
   1 -13   2   58.18    3.21
   1 -13   2   45.45    3.02
  -1 -13  -2   60.04    3.30
   1  -8   5  137.17    6.66
   1  -8   5  137.68    6.66
  -1  -8  -5  129.37    6.63
  -1   8  -5  134.23    6.68
  -1  -8  -5  124.93    6.63
   1  12   3   18.53    1.37
   1 -12   3   21.71    1.42
  -1 -12  -3   21.52    1.64
  -1 -12  -3   22.95    1.61
   1 -12   3   21.49    1.47
  -1 -12  -3   20.74    1.42
   0 -10  -5  343.09   15.53
   0 -10   5  330.35   15.53
   0  10  -5  282.81   15.38
   0 -10   5  328.46   15.55
   0 -10  -5  337.19   15.50
  -2   5  -4  186.22    9.25
  -2   5  -4  196.08    9.13
  -2  -5  -4  171.46    9.16
  -2  -5  -4  178.97    9.13
  -2  -5  -4  183.15    9.12
  -2   5  -4  197.21    9.11
   0 -12  -4    4.14    1.10
   0 -12   4    5.17    1.08
   0 -12  -4    4.32    1.19
   0 -12  -4    5.69    1.05
   0 -12   4    4.11    1.20
   1  -5  -6    0.15    0.71
   1  -5  -6    1.56    0.83
  -1  -5   6    0.72    0.92
   1  -5  -6    0.55    0.88
  -1  -5   6    1.65    1.14
   1 -11  -4  425.52   20.68
  -1 -11   4  422.75   20.66
   1 -11  -4  427.79   20.56
   1 -11  -4  420.33   20.55
  -1 -11   4  440.20   20.68
   2   0  -5    3.54    0.56
   2   0  -5    4.87    1.02
   2   0  -5    4.20    1.04
  -1 -14   0   46.61    2.61
   1 -14   0   40.64    2.44
   1 -14   0   42.96    2.54
   1 -14   0   39.42    2.40
  -1 -14   0   41.87    2.61
   0  -7   6   48.69    2.76
   0   7  -6   45.32    2.46
   0  -7  -6   51.96    2.73
   0  -7   6   45.24    2.81
   0  -7  -6   52.23    2.70
   2   1  -5  256.15   11.96
   2   1  -5  241.53   11.79
   2  -1  -5  264.35   11.93
   2   1  -5  228.41   11.85
   2  -1  -5  242.25   11.75
  -1  -4  -6  344.61   17.10
   1  -4   6  366.86   17.14
  -1  -4  -6  362.94   17.12
   1  -4   6  346.36   17.11
  -1   4  -6  370.73   17.11
  -1   4  -6  330.65   17.11
  -1   4  -6  349.45   17.13
  -2   8  -3   46.63    2.80
  -2  -8  -3   44.56    2.66
   2  -8   3   45.83    2.54
  -2   8  -3   46.92    2.54
   2   8   3   47.92    2.76
   2  -8   3   47.72    2.52
  -2   8  -3   45.32    2.57
   2  -8   3   47.84    2.62
  -2  -8  -3   45.65    2.68
   0 -15   0   -0.40    1.01
   0 -15   0    1.06    1.16
   0 -15   0    0.79    1.07
   1  -9  -5   37.70    2.10
   1  -9  -5   39.52    2.10
  -1  -9   5   34.45    2.26
   1  -9  -5   34.01    2.26
   1  -9  -5   38.01    2.36
  -1  -9   5   33.57    2.21
  -2 -10   2   32.82    2.14
   2 -10  -2   35.28    2.06
   2 -10  -2   32.97    2.10
   2 -10  -2   35.22    2.18
  -2 -10   2   29.44    2.09
   2  10  -2   35.42    2.11
   2  -2  -5   30.64    1.61
   2  -2  -5   33.66    2.01
  -2  -2   5   34.96    1.80
   2   2  -5   26.55    1.78
   2   2  -5   30.16    1.73
   2   2  -5   31.08    2.00
   1 -14  -1   46.31    2.64
   1 -14  -1   48.16    2.73
   1  14  -1   40.09    2.45
  -1 -14   1   50.19    2.83
   1 -14  -1   43.84    2.57
  -1 -14   1   51.02    2.81
   1 -14   1  174.58    9.42
  -1 -14  -1  198.17    9.53
   1 -14   1  207.13    9.50
  -1 -14  -1  205.33    9.56
   1 -14   1  179.58    9.42
   0 -15  -1   21.51    1.65
   0 -15   1   20.06    1.76
   0 -15  -1   22.30    1.68
   0 -15  -1   23.25    1.78
   0 -15   1   21.29    1.59
   0 -15   1   21.35    1.70
   2   9  -3   20.27    1.60
  -2  -9   3   20.91    1.50
   2  -9  -3   18.73    1.46
  -2  -9   3   19.58    1.62
   2  -9  -3   19.16    1.63
   2  -9  -3   22.84    1.64
   2   7  -4   27.44    1.86
  -2  -7   4   28.32    1.76
  -2  -7   4   29.11    1.88
   2  -7  -4   33.55    2.08
   2   7  -4   28.43    1.97
   2  -7  -4   31.63    1.99
  -1  11  -4  219.14   10.65
  -1 -11  -4  213.36   10.62
   1 -11   4  216.46   10.58
   1 -11   4  201.55   10.55
  -1 -11  -4  230.01   10.64
  -2  -3   5    6.38    0.84
   2   3  -5    7.84    1.09
   2   3  -5    7.04    1.21
   2   3  -5    6.66    0.89
   2  -3  -5    6.55    1.13
   2  -3  -5    7.29    1.03
   2  -3  -5    5.48    0.48
   2   3  -5    5.99    0.78
   2 -11   0    6.66    0.58
   2 -11   0    4.56    1.00
  -2 -11   0    8.13    1.24
   2 -11   0    7.16    0.97
   2 -11   0    6.95    1.19
  -2 -11   0    9.48    1.22
   2  11   0    5.44    1.16
   2 -11   0    5.98    0.91
  -2   6  -4  162.73    7.81
  -2  -6  -4  145.99    7.82
  -2   6  -4  156.22    7.81
   2  -6   4  163.66    7.80
   2  -6   4  173.25    7.81
  -2  -6  -4  148.43    7.83
  -2   6  -4  161.49    7.98
  -2  -6  -4  150.08    7.89
  -1  -6   6   12.68    1.27
   1  -6  -6   11.34    1.14
   1  -6  -6   14.00    1.08
   1  -6  -6   11.88    1.22
  -1  -6   6   12.84    1.36
  -1   5  -6   23.69    1.77
  -1  -5  -6   24.68    1.71
   1  -5   6   22.94    1.67
   1  -5   6   23.14    1.72
  -1   5  -6   22.09    1.68
  -1  -5  -6   23.37    1.62
  -1   5  -6   23.45    1.60
  -2  10  -2   67.28    3.76
   2 -10   2   71.12    3.58
   2  10   2   73.46    3.72
   2 -10   2   62.97    3.45
   2 -10   2   65.82    3.47
   2 -10   2   70.05    3.69
  -2 -10  -2   67.07    3.65
  -2 -10  -2   65.30    3.66
  -1  -9  -5  116.49    5.59
   1  -9   5  113.46    5.56
  -1   9  -5  108.89    5.57
  -1  -9  -5   98.70    5.54
   1  -9   5  106.96    5.54
   2 -11  -1    1.04    0.82
  -2 -11   1    0.57    1.09
  -2 -11   1    0.57    1.09
   2  11  -1    1.26    1.12
   2 -11  -1    0.22    0.85
   2 -11  -1    0.94    1.10
  -1 -13   3   13.76    1.59
   1 -13  -3   13.83    1.28
  -1 -13   3   13.77    1.42
   1 -13  -3   14.51    1.23
   1 -13  -3   13.41    1.45
   0   0  -7    8.93    1.31
   0   0  -7    7.18    1.10
   0  -8  -6  174.04    7.82
   0  -8  -6  181.94    7.83
   0  -8   6  167.11    7.88
   0  -8   6  160.58    7.86
   2 -11   1   95.38    5.11
  -2 -11  -1  106.01    5.27
   2 -11   1  104.89    5.16
   2  11   1  107.35    5.23
   2 -11   1  111.71    5.29
  -2 -11  -1  115.71    5.33
   2 -11   1   88.44    4.99
  -2  -4   5   97.79    5.02
  -2  -4   5   99.72    5.05
   2   4  -5  101.41    5.11
   2  -4  -5  102.51    5.21
   2   4  -5   95.29    5.15
   2  -4  -5  103.62    5.15
   0  -1  -7  377.70   15.51
   0   1  -7  355.03   15.50
   0  -1  -7  349.01   15.48
   0   1  -7  337.61   15.47
   0 -14   3  390.41   19.36
   0 -14   3  390.03   19.38
   0 -14  -3  418.27   19.36
   0 -14  -3  398.30   19.29
   0 -14  -3  395.47   19.31
   1 -14  -2  110.86    5.83
  -1 -14   2  117.21    6.00
   1 -14  -2  121.04    5.87
   1  14  -2  113.09    5.78
   1 -14  -2  115.39    5.94
  -1 -14   2  118.02    6.02
   2   9   3  121.77    6.00
  -2   9  -3  116.01    6.08
   2  -9   3  117.87    5.84
   2  -9   3  111.52    5.85
   2  -9   3  108.54    5.80
  -2  -9  -3  127.03    6.00
  -2   9  -3  126.01    5.87
  -2   9  -3  117.57    5.86
  -2  -9  -3  112.77    5.95
   0  -2   7   36.57    2.21
   0  -2  -7   28.08    1.86
   0  -2  -7   34.33    2.16
   0   2  -7   34.86    2.20
   0   2  -7   35.37    2.13
   0  -2   7   37.82    2.19
   0  -2  -7   36.25    2.15
  -2   0  -5    0.01    0.84
  -2   0  -5    0.34    0.84
  -2   0  -5    0.42    1.01
   0 -11  -5   51.02    2.66
   0 -11   5   45.11    2.69
   0  11  -5   39.74    2.43
   0 -11   5   45.34    2.70
   0 -11  -5   50.75    2.70
   1  13   3   12.02    1.11
   1 -13   3   14.12    1.28
  -1 -13  -3   14.92    1.48
  -1 -13  -3   13.64    1.20
   1 -13   3   13.62    1.16
  -2   1  -5   -0.35    0.89
  -2  -1  -5    0.29    0.89
  -2   1  -5    0.37    0.84
  -2  -1  -5   -0.04    0.94
  -2  -1  -5    1.45    0.85
  -2   1  -5    0.14    0.99
   0 -15  -2    2.41    1.19
   0 -15  -2    2.41    1.06
   0 -15   2    2.59    1.29
   0 -15  -2    2.66    1.03
   0 -15   2    2.92    1.10
  -1 -10   5    2.65    1.14
   1 -10  -5    2.59    0.83
  -1 -10   5    1.21    0.92
   1 -10  -5    1.57    0.99
   1 -10  -5    2.72    1.19
   1 -10  -5    2.69    0.88
  -1  -6  -6    3.11    1.08
  -1   6  -6    3.00    1.16
   1  -6   6    1.79    0.95
   1  -6   6    1.28    1.06
  -1   6  -6    2.33    0.78
  -1   6  -6    2.98    1.00
  -1 -14  -2   39.75    2.06
   1 -14   2   48.92    2.40
   1  14   2   31.22    1.98
   1 -14   2   34.14    2.22
  -1 -14  -2   45.06    2.40
   1 -14   2   29.65    2.00
   1 -14   2   32.98    2.17
   2   8  -4  479.48   24.97
  -2  -8   4  546.26   25.05
  -2  -8   4  506.25   25.03
   2  -8  -4  534.19   25.10
   2   8  -4  553.45   25.08
   1 -12  -4   -0.50    0.78
   1 -12  -4    0.32    1.13
  -1 -12   4    0.37    0.99
  -1 -12   4    1.10    1.20
   1 -12  -4   -0.27    0.88
  -2   7  -4    2.65    1.03
  -2  -7  -4    2.22    0.94
  -2  -7  -4    1.97    1.04
   2  -7   4    2.41    0.93
  -2   7  -4    2.12    0.85
  -2   7  -4    2.60    0.96
   2  -7   4    1.77    0.80
  -1  -7   6    1.08    1.06
   1  -7  -6    1.48    0.71
   1  -7  -6    1.15    0.82
  -1  -7   6    0.44    0.92
   1   7  -6    1.07    0.70
   1  -7  -6    0.10    0.88
  -2  -2  -5   46.96    2.73
  -2   2  -5   49.83    2.79
  -2   2  -5   46.45    2.72
  -2   2  -5   51.85    2.76
  -2  -2  -5   47.41    2.69
   0 -13   4    3.56    1.20
   0 -13  -4    4.25    1.16
   0 -13  -4    1.43    1.14
   0 -13  -4    2.19    1.01
   0   3  -7   76.89    4.06
   0   3  -7   76.33    4.01
   0  -3   7   73.45    4.05
   0  -3  -7   65.11    3.81
   0  -3   7   78.99    4.04
   0  -3  -7   80.53    4.02
   0  -3  -7   80.68    3.98
  -2 -11   2   -0.13    1.16
  -2 -11   2    0.70    1.07
   2 -11  -2   -0.76    1.13
   2 -11  -2    1.34    0.90
   2 -11  -2    0.19    0.86
   2  11  -2    0.76    1.05
   2   5  -5   33.73    2.15
  -2  -5   5   40.92    2.11
   2  -5  -5   33.07    2.28
   2  -5  -5   39.27    2.31
   2   5  -5   31.44    2.26
  -2  -5   5   37.69    2.15
  -2 -10   3   29.72    2.05
   2  10  -3   29.95    2.01
   2 -10  -3   30.12    1.92
  -2 -10   3   27.77    1.92
   2 -10  -3   30.81    2.04
  -3   0   0    0.44    0.74
   3   0   0    0.16    1.05
   3   0   0    1.22    0.99
   3   1   0   89.76    4.35
   3   1   0   76.82    4.36
   3  -1   0   85.56    4.35
   3  -1   0   76.56    4.32
  -3   1   0   80.88    4.30
  -3  -1   0   83.30    4.29
  -2   3  -5   33.90    2.22
  -2   3  -5   36.29    2.17
  -2   3  -5   37.68    2.15
  -2  -3  -5   35.65    2.15
  -2  -3  -5   36.34    2.20
  -3   0   1   16.71    1.23
   3   0  -1   16.90    1.48
   3   0  -1   19.98    1.51
   1 -15   0   46.53    2.68
   1 -15   0   47.35    2.79
   1 -15   0   45.96    2.73
  -1 -15   0   45.37    2.87
   3  -1  -1   67.49    3.55
  -3   1   1   70.05    3.45
   3  -1  -1   58.59    3.49
   3   1  -1   67.55    3.52
  -3  -1   1   67.06    3.39
   3   1  -1   57.14    3.51
  -1  12  -4    2.10    0.97
   1 -12   4    1.15    1.07
  -1 -12  -4   -0.12    1.14
   1 -12   4    2.03    0.93
  -1  10  -5   19.72    1.53
  -1 -10  -5   20.05    1.59
   1 -10   5   19.43    1.50
   1 -10   5   19.14    1.60
   1 -10   5   17.80    1.17
   0  -4  -7   29.12    1.92
   0   4  -7   32.01    2.22
   0  -4  -7   35.59    2.07
   0  -4  -7   35.59    2.15
   0  -4   7   35.88    2.22
   3  -2   0  221.21   11.35
  -3   2   0  241.03   11.39
  -3  -2   0  245.39   11.34
   3   2   0  222.54   11.33
   3  -2   0  228.09   11.33
   3   2   0  228.46   11.39
   2 -12   0  324.24   13.74
  -2 -12   0  333.90   13.94
   2  12   0  339.57   13.85
   2 -12   0  325.87   13.92
   2 -12   0  301.47   13.85
  -2 -12   0  335.52   13.93
   2 -11   2    6.83    0.79
  -2 -11  -2    7.23    1.27
   2 -11   2    7.54    1.27
   2 -11   2    7.64    0.94
   2 -11   2    6.00    0.72
  -2 -11  -2    7.47    1.19
   2 -11   2    7.70    1.04
   2  11   2    8.58    1.29
   0 -16   0  297.49   14.20
   0 -16   0  282.55   14.08
   0  -9  -6  176.32    7.83
   0  -9  -6  186.16    7.86
   0  -9   6  161.91    7.87
  -3  -2   1   13.52    0.96
   3  -2  -1   11.43    1.24
   3  -2  -1   12.03    1.34
   3  -2  -1   12.34    1.33
   3  -2  -1    9.32    1.12
   3   2  -1   12.93    1.28
   3   2  -1    9.32    1.36
  -3   2   1   13.03    1.03
   1 -15  -1   74.55    4.03
   1 -15  -1   83.79    4.14
  -1 -15   1   79.54    4.22
   1 -15  -1   78.91    4.04
   1  15  -1   67.63    3.85
  -1  -7  -6   37.07    2.25
   1  -7   6   36.27    2.29
  -1   7  -6   37.06    2.19
  -1   7  -6   34.52    2.31
   3   0   1    0.37    1.11
  -3   0  -1    1.19    0.88
   3   0   1    0.29    1.06
   2 -12  -1   14.77    1.30
   2  12  -1   15.99    1.44
   2 -12  -1   13.53    1.23
   2 -12  -1   13.47    1.51
  -2 -12   1   17.67    1.58
  -2 -12   1   16.07    1.60
  -2   4  -5   76.85    4.00
  -2  -4  -5   74.42    3.96
  -2   4  -5   80.03    3.99
  -2  -4  -5   71.29    3.97
  -1 -15  -1  110.59    5.30
   1 -15   1  112.18    5.21
   1 -15   1   97.61    5.17
   3   1   1   24.41    1.99
  -3  -1  -1   31.07    1.84
  -3   1  -1   30.03    1.87
   3   1   1   26.00    1.87
   3  -1   1   23.75    1.92
   3  -1   1   26.10    1.87
  -2  -6   5   95.35    4.81
   2  -6  -5   92.67    4.90
   2   6  -5   97.89    4.84
   2   6  -5   98.79    4.93
  -2  -6   5   86.90    4.76
   1   0  -7   75.33    4.12
   1   0  -7   83.25    4.17
   3  -3   0  173.10    8.60
  -3  -3   0  166.56    8.52
   3   3   0  180.64    8.57
   3   3   0  159.60    8.60
   3  -3   0  178.37    8.56
  -3   3   0  178.73    8.65
   1  -1  -7   98.74    4.99
   1  -1  -7  107.91    5.05
   1   1  -7   99.80    5.03
   1   1  -7   87.31    4.96
   2  -8   4  534.34   25.00
   2  -8   4  516.82   25.02
  -2  -8  -4  493.17   25.06
  -2   8  -4  526.11   25.03
  -2   8  -4  524.64   25.03
   2  -8   4  518.94   25.00
   2 -10   3   65.59    3.41
   2 -10   3   56.29    3.36
  -2 -10  -3   62.02    3.57
   2 -10   3   73.38    3.47
   2  10   3   69.69    3.57
   0 -16  -1    3.47    1.27
   0 -16   1    3.30    1.26
   0 -16   1    4.38    1.04
   0 -16  -1    4.14    1.14
  -1  -8   6    2.10    0.94
   1  -8  -6    1.95    0.72
   1   8  -6    1.41    0.60
   1  -8  -6    1.61    0.84
   1  -8  -6    1.75    0.94
  -1  -8   6    1.68    1.17
  -3  -3   1  192.89    8.59
  -3   3   1  189.10    8.70
   3  -3  -1  174.36    8.70
   3  -3  -1  179.02    8.62
   3   3  -1  156.83    8.67
   3  -3  -1  180.70    8.68
   3   3  -1  185.00    8.64
   2 -12   1   17.67    1.34
   2  12   1   27.70    1.79
  -2 -12  -1   26.86    1.83
   2 -12   1   22.65    1.41
   2 -12   1   23.41    1.63
  -2 -12  -1   24.86    1.88
   2 -12   1   21.34    1.48
   2 -12   1   28.10    1.84
  -3  -2  -1   41.05    2.42
   3  -2   1   41.24    2.47
   3  -2   1   40.74    2.48
   3   2   1   39.45    2.56
   3   2   1   42.13    2.48
  -2  -9   4  339.62   16.30
   2   9  -4  369.87   16.36
  -2  -9   4  318.58   16.30
   2  -9  -4  324.85   16.33
   2  -9  -4  329.21   16.36
   0  -5  -7   35.01    2.21
   0  -5   7   39.97    2.46
   0  -5  -7   40.63    2.38
   0   5  -7   42.28    2.51
   1  -2  -7  504.19   23.22
   1   2  -7  494.00   23.24
   1   2  -7  446.36   23.21
  -1  -2   7  500.90   23.25
   1  -2  -7  435.82   23.21
  -1  -2   7  463.56   23.25
   1  -2  -7  535.17   23.23
  -3   0   2    0.28    0.47
   3   0  -2   -0.91    1.11
   3   0  -2    1.07    1.08
   3   0  -2    0.09    0.97
   1 -14  -3   29.05    2.06
  -1 -14   3   32.48    2.20
   1 -14  -3   30.27    1.88
   1 -14  -3   26.48    1.89
   3  -1  -2    1.66    1.06
   3  -1  -2    2.48    1.00
   3  -1  -2    0.62    0.65
   3   1  -2    0.68    1.03
  -3   1   2    1.01    0.51
   3   1  -2    0.98    1.02
   3   1  -2    1.47    1.00
  -3  -1   2    1.32    0.46
   3  -1  -2    1.82    1.06
   0 -12   5    2.94    1.18
   0 -12  -5    5.01    1.25
   0  12  -5    3.25    0.66
   0 -12  -5    4.74    1.11
   1 -11  -5   43.56    2.53
  -1 -11   5   45.31    2.72
   1 -11  -5   46.59    2.74
   1 -11  -5   44.47    2.51
  -3  -4   0   46.04    2.67
  -3   4   0   47.95    2.83
   3   4   0   50.37    2.80
   3  -4   0   51.32    2.81
   3  -4   0   53.20    2.86
   3   4   0   46.57    2.92
  -3  -3  -1   17.03    1.35
   3   3   1   14.02    1.63
   3  -3   1   16.60    1.51
   3  -3   1   18.74    1.48
  -2   5  -5  164.44    7.92
  -2   5  -5  157.74    7.91
  -2  -5  -5  153.72    7.88
   3  -2  -2   20.28    1.50
   3  -2  -2   26.17    1.76
   3   2  -2   23.93    1.70
  -3  -2   2   23.39    1.33
   3   2  -2   22.70    1.73
  -3   2   2   24.02    1.48
   3   2  -2   19.52    1.73
   3  -2  -2   20.06    1.70
   3  -2  -2   22.15    1.66
   3  -4  -1   13.13    1.37
  -3  -4   1   16.23    1.09
   3   4  -1   14.24    1.32
   3   4  -1   12.73    1.45
   3  -4  -1   13.58    1.30
   3  -4  -1    9.91    1.21
  -3   4   1   17.00    1.22
   3  -4  -1   14.42    1.40
   1   3  -7   74.56    4.01
  -1  -3   7   72.80    3.99
   1  -3  -7   79.82    3.91
  -1  -3   7   77.53    3.99
   1   3  -7   68.93    3.94
   1  -3  -7   67.39    3.92
   1  -3  -7   83.10    3.96
   0 -15  -3    6.25    1.25
   0 -15   3    6.26    1.35
   0 -15  -3    6.55    1.25
   2 -11  -3  129.23    6.37
   2 -11  -3  121.95    6.27
  -2 -11   3  118.02    6.32
   2  11  -3  131.18    6.30
  -2 -11   3  119.17    6.34
   1 -15  -2    2.69    1.18
   1 -15  -2    2.34    1.03
   1 -15  -2    1.94    0.66
   1 -15  -2    2.65    0.94
  -1 -15   2    1.74    1.32
   1 -14   3  161.93    8.18
  -1 -14  -3  175.83    8.29
   1 -14   3  171.59    8.20
  -1 -14  -3  177.01    8.12
   1 -13  -4   30.36    1.96
   1 -13  -4   35.23    2.01
  -1 -13   4   30.15    2.19
   1 -13  -4   28.84    2.18
   2 -12  -2   77.39    3.99
   2  12  -2   70.75    3.90
  -2 -12   2   72.97    3.97
   2 -12  -2   69.16    3.82
  -2 -12   2   74.77    3.99
  -2  -7   5  341.54   16.43
  -2  -7   5  339.91   16.42
   2   7  -5  334.95   16.41
   2  -7  -5  337.84   16.51
   1  -8   6   28.74    1.94
  -1   8  -6   29.87    2.02
  -1  -8  -6   27.71    1.92
  -1   8  -6   25.69    1.81
  -1   0  -7  268.88   13.10
  -1   0  -7  266.25   13.07
   3  -3  -2    9.27    1.15
  -3   3   2   11.22    0.93
  -3  -3   2   10.19    0.79
   3   3  -2   10.86    1.37
   3  -3  -2   10.97    1.32
   3   3  -2   11.98    1.24
   3  -3  -2    9.16    1.06
   3  -3  -2   10.92    1.26
   0 -14   4   12.98    1.50
   0 -14  -4   13.69    1.47
   0 -14  -4   12.18    1.40
  -1  -1  -7    4.61    0.99
  -1   1  -7    4.77    0.94
  -1  -1  -7    8.85    1.30
  -1   1  -7    9.45    1.35
   3  -4   1    6.00    1.15
   3   4   1    5.19    1.31
   3  -4   1    5.64    1.15
  -3  -4  -1    4.00    0.94
  -1 -15  -2   14.16    1.53
  -1 -15  -2   14.73    1.10
   1 -15   2   17.42    1.52
   1 -15   2   11.72    1.39
   1 -15   2    9.68    0.99
   1 -15   2   11.32    1.29
   0  -6  -7   13.68    1.28
   0  -6  -7   16.54    1.45
   0   6  -7   14.18    1.59
   0  -6   7   17.39    1.58
   2   0  -6  984.88   46.25
   2   0  -6  940.63   46.33
   0 -10  -6   55.69    3.04
   0 -10   6   52.45    3.11
  -1 -11  -5   84.99    4.17
  -1  11  -5   71.50    4.11
   1 -11   5   74.53    4.11
  -1  -4   7  162.00    7.95
   1  -4  -7  159.72    7.84
   1   4  -7  156.83    7.94
   1  -4  -7  142.88    7.91
   1  -4  -7  169.74    7.87
   3   5   0   36.01    2.28
   3  -5   0   35.89    2.20
   3  -5   0   30.46    2.07
  -3  -5   0   30.01    1.95
   3  -5   0   36.18    2.09
   3   5   0   35.04    2.12
   0 -16  -2   37.74    2.46
   0 -16   2   42.87    2.65
   0 -16  -2   42.75    2.59
   3   0   2    0.96    1.20
   2   1  -6    9.60    1.28
   2  -1  -6    9.02    0.82
   2   1  -6   11.80    1.06
   2   1  -6    9.63    1.24
   2   1  -6   11.22    0.92
   3  -1   2   32.06    2.24
   3   1   2   38.83    2.36
  -1   2  -7  344.32   16.53
  -1   2  -7  353.57   16.61
  -1  -2  -7  324.75   16.56
   3  -5  -1   81.07    4.64
   3   5  -1   89.50    4.79
   3  -5  -1   89.50    4.63
   3  -5  -1   85.79    4.74
   3   5  -1   93.08    4.66
  -3   5   1   99.52    4.79
  -3  -5   1   94.95    4.59
   3  -5  -1   89.88    4.75
  -2   9  -4  267.89   13.15
  -2  -9  -4  270.08   13.21
  -2   9  -4  279.69   13.17
   2  -9   4  243.03   13.10
   2  -9   4  293.07   13.15
   2  -9   4  270.67   13.12
   1  -9  -6   35.19    2.04
   1  -9  -6   39.39    2.41
  -1  -9   6   31.72    2.26
   1  -9  -6   33.10    2.05
   1  13   4    0.58    0.85
   1 -13   4   -1.17    1.05
  -1  13  -4    0.39    0.92
  -1 -13  -4   -0.98    0.98
  -1 -13  -4   -0.02    1.22
  -2   6  -5    4.21    0.83
  -2   6  -5    4.14    1.14
  -2  -6  -5    3.31    1.02
   2 -12   2   40.65    2.53
   2  12   2   51.17    2.78
   2 -12   2   51.53    2.67
   2 -12   2   41.81    2.50
  -2 -12  -2   50.03    2.85
   2 -12   2   48.73    2.83
   2 -12   2   50.33    2.58
   2   2  -6   32.50    1.89
   2   2  -6   34.25    1.84
  -2  -2   6   28.16    1.89
   2   2  -6   34.82    2.03
   2   2  -6   28.27    1.77
   2  -2  -6   33.62    2.10
  -2  -2   6   25.37    1.79
   3  -2   2   88.33    4.75
   3   2   2   86.59    4.79
   3  -2   2   94.57    4.75
   3  -4  -2   43.12    2.53
   3   4  -2   42.22    2.71
   3  -4  -2   40.30    2.53
   3  -4  -2   46.26    2.68
  -3   4   2   49.63    2.58
   3  -4  -2   47.02    2.72
   3   4  -2   48.76    2.60
   2 -13   0    0.11    0.75
   2 -13   0    0.32    1.16
  -2 -13   0    1.32    1.24
   2  13   0    0.89    1.04
   2 -10  -4   63.38    3.39
   2  10  -4   67.40    3.44
  -2 -10   4   58.82    3.35
  -2 -10   4   54.65    3.30
   2 -10  -4   61.99    3.46
   2 -11   3  165.92    8.24
   2 -11   3  148.16    8.21
   2 -11   3  184.08    8.29
  -2 -11  -3  164.05    8.39
   2  11   3  180.88    8.39
  -1   3  -7  364.20   17.17
  -1  -3  -7  340.66   17.20
  -1   3  -7  355.24   17.24
   3  -5   1    2.16    1.05
  -3  -5  -1    2.06    0.78
   3  -5   1    3.42    1.09
   3   5   1    2.97    1.29
   2 -13  -1  132.93    7.14
   2  13  -1  153.41    7.26
   2 -13  -1  151.15    7.35
  -2 -13   1  142.82    7.34
  -1 -16   0   22.28    1.97
   1 -16   0   23.30    1.79
   1 -16   0   20.17    1.63
   1 -16   0   23.91    1.79
   2   3  -6    0.71    0.82
   2   3  -6   -0.59    0.99
   2  -3  -6    1.22    1.15
   2   3  -6    1.31    0.88
  -2  -3   6    0.36    0.72
   2   3  -6    0.98    0.70
  -2  -3   6    0.35    0.85
   1  -5  -7    6.75    1.00
   1   5  -7    6.15    1.27
   1  -5  -7    6.06    1.02
  -1  -5   7    5.64    1.26
   1  -5  -7    5.38    0.85
   3  -3   2   29.01    1.96
   3   3   2   28.12    2.08
   3  -3   2   30.82    2.02
  -3  -3  -2   26.50    1.69
   3   0  -3  313.45   14.49
   3   0  -3  282.61   14.46
   3   0  -3  295.10   14.52
   3   6   0  139.87    7.51
   3  -6   0  139.10    7.39
   3   6   0  140.32    7.38
   3  -6   0  149.46    7.35
  -3  -6   0  163.72    7.41
   3  -6   0  154.65    7.50
   3  -1  -3   84.86    4.26
   3   1  -3   78.65    4.24
   3  -1  -3   85.69    4.31
   3   1  -3   80.94    4.27
   3  -1  -3   72.80    4.02
  -3   1   3   77.51    4.06
   3   1  -3   81.95    4.23
   2 -13   1   22.35    1.63
   2  13   1   28.34    1.76
   2 -13   1   16.52    1.35
   2 -13   1   20.11    1.51
   2 -13   1   27.74    1.89
  -2 -13  -1   25.98    1.93
  -2  -8   5    3.34    1.11
   2   8  -5    3.60    0.93
  -2  -8   5    4.14    0.93
   2  -8  -5    4.61    1.26
   0  -7   7  730.51   35.33
   0   7  -7  710.85   35.27
   0  -7  -7  788.02   35.24
   0  -7  -7  698.23   35.25
   1 -16  -1    4.71    1.24
   1 -16  -1    4.17    0.93
   1 -16  -1    3.73    1.05
  -1 -16   1    5.23    1.39
   3  -6  -1    7.24    1.13
   3   6  -1    6.73    1.29
   3  -6  -1    6.47    1.22
   3  -6  -1    7.02    1.20
   3   6  -1    7.49    1.08
   3  -6  -1    7.12    0.96
   1 -12  -5  164.53    8.31
   1 -12  -5  169.32    8.33
  -1 -12   5  174.74    8.45
   1 -12  -5  163.18    8.47
   1  -4   7   17.18    1.58
  -1   4  -7   17.72    1.61
  -1  -4  -7   17.11    1.55
  -1   4  -7   16.65    1.30
   0 -17   0    0.57    1.27
   0 -17   0   -0.62    0.96
   3  -5  -2   10.54    1.35
  -3   5   2   12.80    1.06
   3  -5  -2   10.65    1.13
   3  -5  -2    9.80    1.26
   3   5  -2   11.52    1.17
   3   5  -2   10.53    1.39
   3  -5  -2    9.73    1.21
   3   2  -3   -0.52    1.10
   3  -2  -3    0.40    0.80
   3  -2  -3    0.05    0.92
   3   2  -3    0.66    1.03
   3  -2  -3   -0.15    1.09
   3   2  -3   -0.12    1.06
  -3   2   3    0.23    0.56
  -1 -16  -1   22.24    1.95
   1 -16   1   25.49    1.82
   1 -16   1   19.90    1.81
  -1  -9  -6    0.24    1.04
  -1   9  -6    0.18    0.79
   1  -9   6    0.66    1.13
   0 -13  -5   16.79    1.54
   0 -13  -5   18.40    1.63
   0 -13   5   16.32    1.60
   0  13  -5   13.76    1.14
  -2  -4   6    5.04    0.89
   2   4  -6    4.98    0.86
   2   4  -6    4.99    1.08
   2  -4  -6    5.56    1.22
   2   4  -6    6.61    0.98
  -2  -4   6    5.13    1.02
   2  -7   5   25.91    1.78
  -2   7  -5   24.33    1.67
  -2   7  -5   27.73    1.80
  -2  -7  -5   25.73    1.79
   2  -7   5   22.05    1.62
  -3  -4  -2    1.93    0.87
   3   4   2    1.03    1.25
   3  -4   2    2.03    1.09
   3  -4   2    1.86    1.08
  -3  -4  -2    2.46    0.76
  -2 -12   3    0.41    1.22
   2 -12  -3    0.99    0.87
   2 -12  -3   -0.53    1.19
   2  12  -3   -0.41    1.01
   1 -15  -3  130.14    7.05
   1 -15  -3  147.34    7.20
  -1 -15   3  146.63    7.25
   1 -15  -3  142.14    7.07
   0 -17  -1   57.01    3.23
   0 -17   1   55.74    3.26
   0 -17  -1   52.19    3.06
   0 -17   1   53.36    3.04
   3  -6   1   59.49    3.13
   3  -6   1   57.99    3.02
   3   6   1   57.74    3.25
  -3  -6  -1   51.30    2.95
  -3   3   3   70.10    3.65
   3  -3  -3   68.87    3.69
   3   3  -3   63.09    3.78
   3   3  -3   72.57    3.80
   3  -3  -3   73.78    3.86
   3  -3  -3   69.62    3.66
  -1  -6   7  237.72   12.25
   1  -6  -7  258.84   12.15
   1  -6  -7  247.40   12.15
  -2 -13   2    2.68    1.30
   2  13  -2    2.04    1.06
   2 -13  -2    2.37    0.91
   2 -13  -2    2.35    1.19
   0 -11   6    2.39    1.25
   0 -11  -6    2.79    1.10
   2 -10   4  180.71    9.15
   2 -10   4  182.23    9.15
  -2 -10  -4  179.59    9.26
  -2  10  -4  185.72    9.19
   2 -10   4  191.14    9.15
   2  10   4  192.33    9.27
  -2  10  -4  189.10    9.19
   1 -10  -6    1.38    0.89
   1 -10  -6    1.74    0.80
   1 -10  -6    0.67    1.28
  -1 -10   6    1.38    1.18
   1 -14  -4   15.72    1.59
  -1 -14   4   16.34    1.70
   1 -14  -4   14.45    1.36
   1 -14  -4   15.07    1.29
   1  -5   7   62.81    3.29
  -1   5  -7   56.74    3.31
  -1  -5  -7   54.97    3.25
  -1   5  -7   57.53    3.15
  -2   0  -6   46.16    2.71
   1 -12   5    2.87    1.16
  -1 -12  -5    3.27    1.22
  -1  12  -5    2.31    0.93
  -2   1  -6  284.89   14.00
  -2  -1  -6  288.96   14.01
   3  -7   0   89.73    4.51
   3  -7   0   80.72    4.60
  -3  -7   0   71.94    4.51
   3   7   0   98.96    4.59
   3   7   0   90.68    4.74
   3  -7   0   97.33    4.71
   1 -15   3   70.99    4.16
  -1 -15  -3   76.31    4.04
   0 -16  -3  144.76    6.91
   0 -16  -3  126.23    6.82
   0 -16   3  133.92    6.93
   2  -5  -6    1.00    1.09
   2   5  -6    1.00    1.00
   2   5  -6    1.42    0.83
   2   5  -6    0.85    0.94
  -2  -5   6    0.92    0.78
  -2  -5   6    1.66    1.00
   3  -6  -2    0.27    1.14
   3   6  -2    0.34    0.91
   3   6  -2   -0.02    1.19
   3  -6  -2    0.05    1.04
   3  -6  -2   -0.34    0.98
   3  -6  -2    0.16    0.76
   3   5   2  190.20    9.07
   3  -5   2  192.80    8.95
  -3  -5  -2  165.80    8.86
   3  -5   2  188.79    8.99
  -3  -5  -2  166.93    8.85
   1 -16  -2   16.73    1.64
  -1 -16   2   13.86    1.75
   1 -16  -2   15.87    1.45
   1 -16  -2   16.26    1.39
   3  -7  -1   15.40    1.46
   3   7  -1   13.77    1.58
   3  -7  -1   14.46    1.51
   3   7  -1   18.21    1.32
   3  -7  -1   15.42    1.46
   3  -7  -1   13.46    1.15
   3   4  -3   11.21    1.36
   3  -4  -3   10.76    1.23
   3  -4  -3    9.76    1.37
   3  -4  -3   11.58    1.14
  -3   4   3   12.45    1.03
   3   4  -3   11.70    1.35
  -2  -2  -6   -0.26    1.05
  -2   2  -6    2.01    1.08
   0  -8  -7   13.03    1.25
   0  -8   7   12.75    1.57
   0  -8  -7   12.89    1.34
  -2 -11   4   15.58    1.54
   2  11  -4   17.68    1.53
   2 -11  -4   14.83    1.44
   2 -11  -4   15.49    1.61
   0 -15  -4  713.83   33.82
   0 -15   4  700.33   33.85
   0 -15  -4  692.72   33.80
   3   0   3  214.20   10.64
   2 -13   2    0.72    0.71
  -2 -13  -2    0.33    1.22
   2  13   2    0.89    1.09
   2 -13   2    0.36    0.89
   2 -13   2    0.89    0.83
   2 -13   2    0.47    0.57
   2 -13   2    0.47    1.24
   3   1   3  189.72    9.18
   3  -1   3  176.39    9.13
   2  -9  -5  134.32    6.65
   2   9  -5  124.22    6.42
  -2  -9   5  129.71    6.53
   2 -12   3   32.48    2.02
   2 -12   3   34.29    2.06
   2  12   3   33.46    2.23
  -2 -12  -3   32.21    2.33
   2 -12   3   37.96    2.09
  -1 -16  -2    7.46    1.48
   1 -16   2    7.32    1.27
   1 -16   2    9.71    1.35
   1 -16   2    6.13    0.86
  -1 -14  -4   25.98    1.74
   1  14   4   21.78    1.62
  -1 -14  -4   25.81    2.01
   1 -14   4   24.77    1.83
  -2  -8  -5    0.72    1.02
   2  -8   5   -0.13    0.98
  -2   8  -5    0.53    0.97
   3  -2   3  260.85   13.44
   3   2   3  248.48   13.45
  -3  -2  -3  301.85   13.35
  -3  -2  -3  276.48   13.29
  -2  -3  -6  110.58    5.77
  -2   3  -6  115.37    5.79
   3  -7   1    4.90    0.93
  -3  -7  -1    5.72    1.04
   3   7   1    4.86    1.32
  -3  -7  -1    6.26    0.94
   3  -7   1    4.81    1.19
   2 -14   0  136.98    6.73
   2  14   0  128.81    6.60
  -2 -14   0  125.32    6.73
   1   7  -7    2.92    0.83
  -1  -7   7    2.93    1.24
   1  -7  -7    5.30    0.99
   0 -17   2   76.09    4.35
   0 -17  -2   79.46    4.27
   0 -17  -2   77.32    4.17
  -1 -10  -6    2.48    1.16
   1 -10   6    2.68    1.20
  -1  10  -6    1.28    0.84
   1  -6   7  221.00   11.01
  -1   6  -7  225.46   10.94
  -1  -6  -7  223.40   11.00
  -1   6  -7  219.75   11.02
   2 -14  -1   98.15    5.33
   2  14  -1  107.62    5.45
  -2 -14   1  113.00    5.63
   2 -14  -1  109.67    5.61
   3  -5  -3    5.88    1.10
   3  -5  -3    6.33    1.24
   3   5  -3    4.91    1.23
  -3   5   3    6.29    0.87
   3  -5  -3    7.67    1.04
   2  -6  -6   -0.43    1.24
   2   6  -6    0.27    0.93
  -2  -6   6    0.08    0.85
  -2  -6   6    0.13    1.04
   0   0  -8  315.59   15.42
  -3  -6  -2   -0.60    0.97
   3  -6   2    0.53    1.08
  -3  -6  -2    0.37    0.86
   3   6   2    0.54    1.25
   3  -6   2    0.23    1.06
  -3  -3  -3    0.55    0.94
   3  -3   3    1.50    1.11
   3   3   3    3.17    1.35
  -3  -3  -3   -0.65    0.82
   0  -1  -8   11.08    1.48
   0   1  -8   13.05    1.58
   3  -7  -2   65.40    3.70
   3  -7  -2   69.00    3.99
   3  -7  -2   71.27    3.89
   3  -7  -2   76.98    3.98
   3   7  -2   71.11    4.01
   1 -13  -5    0.92    0.84
  -1 -13   5    1.88    1.26
   1 -13  -5    0.57    1.29
   1 -13  -5    0.09    0.96
  -2  -4  -6    7.20    1.20
  -2   4  -6    8.34    1.25
   2 -14   1   16.69    1.42
   2 -14   1   21.60    1.81
   2  14   1   19.91    1.60
   3  -8   0  247.61   13.17
  -3  -8   0  245.55   13.08
   3  -8   0  286.33   13.21
   3  -8   0  264.58   13.01
   3   8   0  261.87   13.25
  -3  -8   0  257.30   13.13
   0  -2  -8  390.32   18.35
   0   2  -8  363.57   18.36
   3  -8  -1   84.40    4.41
   3   8  -1   87.94    4.26
   3   8  -1   89.05    4.51
   3  -8  -1   72.67    4.36
   3  -8  -1   79.56    4.44
   3   0  -4    2.40    1.15
   3   0  -4    4.17    1.22
   1 -17   0   46.05    2.86
   1 -17   0   48.16    2.80
  -1 -17   0   47.31    3.02
   0 -14  -5    1.76    1.15
   0 -14  -5   -0.23    1.23
   0 -14   5    0.45    1.19
   3  -1  -4  160.61    8.09
   3   1  -4  168.68    8.20
   3   1  -4  148.17    8.10
   3  -1  -4  175.60    8.23
  -2  11  -4   54.51    2.98
   2  11   4   55.07    3.06
  -2 -11  -4   48.05    3.11
   2 -11   4   51.94    2.89
   2 -11   4   53.18    2.93
  -1 -11   6   32.45    2.26
   1 -11  -6   32.30    2.00
   1 -11  -6   31.50    2.33
   2 -13  -3   14.24    1.62
  -2 -13   3   13.66    1.64
   2  13  -3   14.06    1.42
   2 -13  -3   13.74    1.30
  -3  -4  -3   37.37    2.28
  -3  -4  -3   37.33    2.29
   3  -4   3   44.75    2.51
   3   4   3   38.90    2.55
   3  -4   3   36.69    2.45
   0 -12   6    1.39    1.24
   0 -12  -6    0.80    1.15
   0  -9  -7   24.11    1.82
   0  -9   7   26.70    2.01
   0  -3   8   16.20    1.67
   0  -3  -8   14.47    1.50
   0   3  -8   17.56    1.68
   3   2  -4   36.50    2.26
   3  -2  -4   37.50    2.36
   3  -2  -4   33.93    2.06
   3  -2  -4   35.69    2.19
   3   2  -4   28.96    2.24
  -1 -17   1  503.39   23.28
   1 -17  -1  461.59   23.12
   1 -17  -1  476.77   23.19
   3  -6  -3   75.97    4.11
   3  -6  -3   77.03    4.24
   3   6  -3   84.76    4.24
   3  -6  -3   73.86    3.98
   1  -7   7    4.49    1.24
  -1   7  -7    4.11    1.32
  -1  -7  -7    5.74    1.24
  -1   7  -7    4.55    0.87
   3  -8   1   45.44    2.65
  -3  -8  -1   40.00    2.52
  -3  -8  -1   41.76    2.50
   3  -8   1   43.77    2.41
   3   8   1   42.73    2.75
  -1 -17  -1   43.32    2.83
   1 -17   1   39.97    2.64
   1 -17   1   45.55    2.70
   2 -14  -2   11.83    1.54
  -2 -14   2   11.10    1.55
   2  14  -2   11.98    1.32
   2 -14  -2   10.60    1.17
  -2  -5  -6    2.28    1.07
  -2   5  -6    2.02    1.11
  -1 -13  -5   -0.22    1.19
   1 -13   5    0.98    1.11
  -1 -13  -5    0.06    1.05
   2 -10  -5   62.80    3.65
  -2 -10   5   65.74    3.54
  -1  -8   7   95.73    5.57
   1  -8  -7  115.81    5.45
  -2   9  -5   55.78    3.05
  -2  -9  -5   47.32    3.08
   2  -9   5   56.29    2.96
   2  -9   5   52.61    2.94
  -2  -7   6   29.10    1.97
   2  -7  -6   27.58    2.10
   2   7  -6   28.74    1.87
   0 -18   0 1889.91   92.20
   0 -18   0 1987.90   92.33
   3  -7   2   29.06    1.93
  -3  -7  -2   27.30    1.91
   3  -7   2   29.93    2.05
   3   7   2   29.99    2.21
  -3  -7  -2   31.49    1.97
   1 -16  -3   20.61    1.58
   1 -16  -3   19.27    1.80
  -1 -16   3   19.68    1.92
   2 -12  -4  152.92    7.71
   2 -12  -4  142.43    7.56
  -2 -12   4  153.83    7.64
   2  12  -4  155.82    7.63
   3   3  -4   35.30    2.38
   3   3  -4   40.81    2.42
   3  -3  -4   37.31    2.52
   3  -3  -4   35.46    2.26
   3  -3  -4   37.72    2.22
   1 -15  -4   23.68    1.89
   1 -15  -4   19.63    1.63
  -1 -15   4   23.29    2.00
   0   4  -8  140.94    7.09
   0  -4   8  132.85    7.07
   0  -4  -8  141.96    7.04
   3  -5   3    9.09    1.38
   3  -5   3   10.66    1.32
  -3  -5  -3   10.48    1.20
  -3  -5  -3   10.53    1.11
   3   5   3    8.93    1.49
   3  -8  -2   26.93    1.89
   3   8  -2   28.85    2.00
   0 -18   1   33.11    2.16
   0 -18  -1   35.27    2.44
   0 -18   1   36.47    2.51
   0 -18  -1   34.06    2.23
   1 -11   6  134.91    6.78
  -1 -11  -6  129.85    6.79
  -2 -13  -3  154.63    7.45
   2 -13   3  148.02    7.25
   2 -13   3  142.20    7.22
   2  13   3  138.55    7.32
  -1 -16  -3   16.98    1.34
   1 -16   3   14.31    1.53
  -1 -16  -3   17.48    1.73
  -2 -14  -2   10.29    1.45
   2  14   2   10.39    1.27
   2 -14   2    5.85    0.91
   2 -14   2    9.48    1.11
   2 -14   2    8.53    1.04
   1   0  -8    0.58    1.07
   3   9   0    2.26    1.32
   3   9   0    1.83    0.91
  -3  -9   0    1.40    0.95
   3  -9   0    3.10    1.20
   3  -9   0    2.44    1.17
  -3  -9   0    2.35    1.07
   1  -1  -8   10.78    1.25
   1   1  -8   10.19    1.36
   3   4  -4   39.72    2.44
   3   4  -4   33.97    2.48
   3  -4  -4   37.45    2.32
   3  -4  -4   37.39    2.35
   0 -17   3   11.17    1.59
   0 -17  -3    9.48    1.45
   0 -17  -3   11.04    1.37
   3  -9  -1  165.33    8.15
   3   9  -1  176.96    8.25
  -3  -9   1  155.02    8.05
   3  -9  -1  175.79    8.20
   0 -16   4    4.28    1.42
   0 -16  -4    1.75    1.24
   0 -16  -4    3.63    1.22
  -2   6  -6   -0.72    1.09
  -2  -6  -6   -0.39    1.09
  -1 -17   2   18.15    2.00
   1 -17  -2   21.29    1.68
   1 -17  -2   23.38    1.87
   1 -15   4    1.64    1.14
  -1 -15  -4    0.93    1.00
  -1 -15  -4    1.60    1.31
   3   7  -3   33.29    2.13
   3  -7  -3   28.90    2.07
   3  -7  -3   26.40    1.72
   3  -7  -3   26.53    1.96
   1   2  -8  198.12   10.08
   1  -2  -8  208.17   10.05
   2   0  -7    0.39    1.08
   0  -5  -8    9.19    1.32
   0   5  -8    7.14    1.43
   0  -5   8    6.99    1.42
   2  15   0  157.74    8.38
   2 -15   0  173.90    8.57
  -2 -15   0  179.28    8.62
  -1  -8  -7  113.07    6.19
  -1   8  -7  121.61    6.27
   1  -8   7  127.94    6.26
   2  -1  -7    4.06    1.13
   2   1  -7    4.89    0.90
   2   1  -7    3.77    1.15
   2   1  -7    4.32    1.15
   1 -17   2    8.53    0.97
   1 -17   2   10.05    1.37
   0 -10   7    0.02    1.31
   0 -10  -7    0.58    1.07
   2   8  -6   84.59    4.37
  -2  -8   6   86.54    4.45
   2  -8  -6   81.43    4.59
  -3  -6  -3  284.96   15.03
   3   6   3  310.72   15.18
   3  -6   3  317.88   15.14
   3  -6   3  325.53   15.09
   3  -9   1   68.84    3.82
   3   9   1   70.72    3.86
  -3  -9  -1   64.86    3.69
   2 -15  -1    0.86    1.31
  -2 -15   1    0.61    1.29
   2  15  -1   -0.32    0.99
  -3  -8  -2    4.86    1.10
   3  -8   2    2.25    1.13
   3  -8   2    3.76    0.96
   3   8   2    2.28    1.35
  -3   0  -4    4.30    0.97
   3   0   4    3.57    1.37
   2   2  -7   98.09    5.16
   2   2  -7  109.67    5.20
   2  -2  -7  109.36    5.36
   2   2  -7   93.47    5.30
  -1  -3   8   33.83    2.54
   1   3  -8   39.43    2.56
   1  -9  -7    1.76    0.90
  -1  -9   7    0.85    1.22
   1 -14  -5  212.53   10.35
  -1 -14   5  203.68   10.48
   1 -14  -5  213.59   10.52
  -3  -1  -4  222.37   10.37
   3   1   4  203.81   10.56
  -3  -1  -4  228.67   10.41
  -2 -12  -4   92.53    4.90
   2  12   4   85.64    4.80
   2 -12   4   91.17    4.68
  -2  12  -4   93.32    4.79
   2 -12   4   92.32    4.72
   1 -12  -6   39.18    2.66
  -1 -12   6   40.63    2.58
   1 -12  -6   36.88    2.33
   3   5  -4  222.11   11.13
   3   5  -4  232.75   11.11
   3  -5  -4  233.83   11.22
   3  -5  -4  211.63   11.03
   2 -10   5   47.69    2.83
  -2 -10  -5   48.87    2.97
   2 -10   5   54.10    2.81
  -2  10  -5   48.12    2.88
   2 -15   1   -0.20    1.27
   2  15   1   -0.17    1.05
  -2 -15  -1    0.30    1.30
   0 -18   2   14.18    1.74
   0 -18  -2   15.15    1.67
   0 -18  -2   14.40    1.48
   3  -2   4    3.99    1.29
  -3  -2  -4    4.00    0.97
   3   2   4    5.12    1.39
   0 -13  -6   25.25    2.07
   0 -13  -6   26.95    1.96
   0 -13   6   27.60    2.08
  -2 -11   5  287.45   14.40
   2 -11  -5  302.80   14.51
   3   9  -2   -1.17    1.26
   3  -9  -2    0.02    1.14
   3  -9  -2   -0.57    1.08
   2   3  -7   45.03    2.54
   2   3  -7   42.25    2.71
   2  -3  -7   48.55    2.83
   2   3  -7   48.81    2.63
   2 -14  -3    3.10    0.96
  -2 -14   3    3.59    1.38
   2 -14  -3    3.39    1.39
   2  14  -3    4.03    1.19
   0 -15  -5   13.20    1.48
   0 -15  -5   13.19    1.51
   0 -15   5    8.90    1.48
  -1   0  -8   10.75    1.51
  -2  -7  -6  152.72    7.57
  -2   7  -6  146.65    7.60
   0  -6  -8  300.49   14.60
   0  -6   8  300.01   14.66
   0   6  -8  294.07   14.67
   1  -4  -8  116.53    5.57
   1   4  -8  104.24    5.64
  -1  -4   8  103.82    5.65
  -1   1  -8  303.77   14.82
  -1  -1  -8  300.69   14.81
  -3  -3  -4    1.08    0.91
   3   3   4    0.72    1.32
   3  -3   4    0.60    1.21
   3   8  -3  112.73    5.72
   3  -8  -3  103.52    5.64
   3  -8  -3  109.78    5.69
   1  14   5    8.75    1.13
   1 -14   5   10.90    1.39
  -1 -14  -5   10.43    1.35
  -1 -14  -5   12.81    1.57
   2 -13  -4   21.44    1.75
   2 -13  -4   25.67    2.03
  -2 -13   4   24.11    1.97
  -3 -10   0  450.50   22.72
   3  10   0  494.37   22.64
   3  10   0  513.38   22.85
   3 -10   0  428.81   22.76
   3 -10   0  462.78   22.79
  -1  -2  -8   69.44    3.88
  -1   2  -8   70.71    3.92
   1 -18   0  184.45    9.24
   1 -18   0  175.04    9.21
  -1 -18   0  193.70    9.37
  -3  -7  -3    7.60    1.19
   3   7   3    6.43    1.48
   3  -7   3    7.49    1.27
   3  -7   3    9.37    1.19
   2 -15  -2   59.51    3.33
   2 -15  -2   51.03    2.95
   2  15  -2   50.05    3.05
  -2 -15   2   58.99    3.35
   2   4  -7   17.61    1.53
  -2  -4   7   19.11    1.52
   2   4  -7   18.63    1.48
   2  -4  -7   17.92    1.73
  -3 -10   1   54.41    3.40
   3 -10  -1   60.53    3.50
   3  10  -1   69.75    3.62
   3 -10  -1   68.71    3.51
   3 -10  -1   55.42    3.53
  -1 -12  -6  104.37    5.56
   1 -12   6  106.99    5.54
   3   6  -4   31.67    2.11
   3   6  -4   29.37    1.97
   3  -6  -4   23.29    1.91
   3  -6  -4   23.89    2.07
  -1  -9  -7   26.33    1.97
  -1   9  -7   25.23    2.10
   1  -9   7   27.59    2.02
   1 -18  -1  116.59    5.91
   1 -18  -1  105.32    5.80
  -1 -18   1  115.81    6.03
  -3  -4  -4  111.77    5.94
   3  -4   4  121.37    6.08
   3   4   4  118.59    6.15
  -1  -3  -8   46.46    2.81
  -1   3  -8   46.04    2.90
   2  -9  -6  120.02    6.02
  -2  -9   6  114.55    5.87
   2   9  -6  108.82    5.72
   1  -5  -8  103.42    4.98
   1   5  -8   89.93    5.08
  -1  -5   8   93.22    5.10
   3   9   2    9.20    1.49
  -3  -9  -2    9.13    1.27
   3  -9   2    7.56    1.29
   2  14   3   22.21    1.73
   2 -14   3   21.74    1.58
  -2 -14  -3   22.40    1.93
   2 -14   3   21.17    1.55
   3   0  -5  467.82   21.10
   3   0  -5  405.90   20.96
  -1 -18  -1  280.38   13.18
   1 -18   1  273.67   13.07
   1 -18   1  243.21   13.01
  -1 -17   3  122.01    6.50
   1 -17  -3  122.40    6.26
   1 -17  -3  121.44    6.36
   1 -16  -4  101.95    5.42
  -1 -16   4  113.45    5.69
   1 -16  -4  101.89    5.59
   3 -10   1   60.96    3.59
   3  10   1   67.66    3.67
  -3 -10  -1   60.84    3.51
   3   1  -5  150.50    8.09
   3   1  -5  155.49    8.17
   0 -11   7  312.78   16.11
   0 -11  -7  341.40   16.05
  -1 -10   7   38.73    2.68
   1 -10  -7   42.24    2.49
   1 -10  -7   46.21    2.88
   2 -15   2    5.31    0.97
   2  15   2    5.55    1.08
  -2 -15  -2    5.91    1.47
   0   7  -8   -1.42    1.46
   0  -7  -8   -0.77    1.11
   0  -7   8   -1.68    1.39
   0 -19   0   -0.31    1.32
   0 -19   0   -0.94    1.06
  -2  -5   7   85.40    4.61
   2   5  -7   81.11    4.60
   2  -5  -7   90.82    4.76
   2   5  -7   95.73    4.62
   3  -2  -5   21.43    1.88
   3  -2  -5   20.34    1.54
   3   2  -5   23.63    1.79
   3   2  -5   19.88    1.80
  -2   8  -6   38.66    2.38
  -2  -8  -6   34.76    2.36
  -1   4  -8   58.49    3.22
  -1  -4  -8   48.03    3.09
  -2   0  -7    0.65    1.08
  -1 -17  -3  110.04    5.33
   1 -17   3   87.74    5.12
   2 -11   5  283.33   14.41
  -2  11  -5  297.08   14.54
   2 -11   5  299.72   14.48
  -2 -11  -5  303.59   14.60
   2  11   5  305.68   14.56
  -2  -1  -7   16.28    1.56
  -2   1  -7   14.23    1.52
   3  10  -2  120.58    6.18
   3 -10  -2  117.24    6.09
   3 -10  -2  117.39    6.14
  -3  -5  -4  111.33    6.00
   3   5   4  113.81    6.19
   3  -5   4  126.64    6.13
   3  -5   4  121.89    6.13
   1 -16   4  108.33    5.81
  -1 -16  -4  114.37    5.98
  -1 -16  -4  115.25    5.73
   3   7  -4   21.71    1.82
   3  -7  -4   19.10    1.66
   3  -7  -4   20.36    1.82
  -2 -13  -4   45.15    2.87
   2  13   4   42.32    2.72
   2 -13   4   44.74    2.55
  -2  13  -4   47.44    2.75
   2 -13   4   46.92    2.64
   0 -19   1  342.58   16.47
   0 -19  -1  321.87   16.28
   0 -19  -1  342.24   16.43
   1 -13  -6    3.01    1.41
   1 -13  -6    2.84    1.01
  -1 -13   6    2.14    1.29
   3  -9  -3   -1.12    1.20
   3  -9  -3   -0.69    1.16
   3   9  -3    0.36    1.24
   3   3  -5   25.67    1.88
   3  -3  -5   23.44    1.68
   3  -3  -5   24.80    2.03
   3   3  -5   22.10    1.89
   0 -17  -4  109.47    5.71
   0 -17   4  110.65    5.82
   0 -17  -4  107.81    5.75
   3   8   3   41.09    2.67
   3  -8   3   41.91    2.53
   3  -8   3   44.08    2.41
  -2   2  -7  209.83   10.46
  -2  -2  -7  211.68   10.46
  -2 -12   5  330.94   16.54
   2 -12  -5  339.26   16.56
   2 -12  -5  348.32   16.66
  -2 -16   0   39.25    2.71
   2  16   0   34.25    2.33
   1  -6  -8   93.14    4.50
  -1  -6   8   82.97    4.63
   1   6  -8   79.42    4.61
   0 -18  -3   31.81    2.33
   0 -18   3   34.20    2.43
   0 -18  -3   28.98    2.15
   1 -18  -2    0.53    1.11
  -1 -18   2    1.12    1.54
   1 -18  -2    0.74    1.24
   1 -15  -5   15.44    1.74
  -1 -15   5   14.88    1.73
   1 -15  -5   16.03    1.43
  -2 -16   1  166.25    8.26
   2 -16  -1  182.86    8.28
   0 -14  -6   10.84    1.55
   0 -14  -6   13.58    1.48
   0 -14   6   10.36    1.62
   3 -11   0   25.38    2.01
   3  11   0   30.64    2.12
  -3 -11   0   28.26    1.94
  -1  -5  -8  342.02   17.75
  -1   5  -8  391.51   17.84
  -2  -3  -7   75.51    4.17
  -2   3  -7   79.09    4.20
  -2  -6   7    1.77    1.08
   2  -6  -7    2.43    1.28
   2   6  -7    2.62    1.10
   2   6  -7    3.49    1.03
  -1  10  -7   74.70    4.21
  -1 -10  -7   74.72    4.09
   1 -10   7   73.31    4.12
   1 -18   2   14.87    1.58
  -1 -18  -2   18.65    1.95
   3  11  -1   58.85    3.23
   3 -11  -1   54.07    3.15
   3  -4  -5    2.94    1.31
   3  -4  -5    1.66    1.02
   3   4  -5    2.87    1.12
   3   4  -5    2.27    1.32
   2 -16   1    0.85    1.26
  -2 -16  -1    0.09    1.38
   2  16   1    0.99    1.00
   2 -15  -3    0.80    1.35
   2  15  -3    2.03    1.16
  -2 -15   3    1.35    1.39
   2 -15  -3    2.25    0.94
   2 -10  -6    7.08    1.48
  -2 -10   6    8.52    1.27
   0  -8   8  467.81   23.01
   0  -8  -8  485.92   22.95
   0   8  -8  464.79   23.05
   3  10   2    5.85    1.38
  -3 -10  -2    4.54    1.24
   3 -10   2    6.03    1.22
   3  -6   4    1.16    1.10
  -3  -6  -4    0.79    1.01
   3   6   4    0.41    1.30
   3  -6   4    2.17    1.09
   2 -14  -4  179.76    9.08
   2 -14  -4  179.97    8.93
  -2 -14   4  175.85    9.02
   0 -16  -5  159.82    7.86
   0 -16  -5  160.15    7.87
   0 -16   5  143.32    7.86
  -1 -13  -6    1.79    1.28
   1 -13   6    1.97    1.24
   2  -9   6   72.01    4.10
  -2   9  -6   83.57    4.19
  -2  -9  -6   74.51    4.19
   2  -9   6   76.08    4.02
  -2   4  -7  274.20   12.97
  -2  -4  -7  253.49   12.92
   3  11   1    3.32    1.31
   3 -11   1    2.66    1.15
  -3 -11  -1    3.00    1.12
   3  11   1    2.18    0.93
   1 -15   5  176.64    9.33
  -1 -15  -5  174.35    9.27
   1   7  -8   66.89    3.83
  -1  -7   8   65.91    3.82
  -1 -11   7   74.96    4.27
   1 -11  -7   79.71    4.10
   1 -11  -7   74.89    4.33
   0 -19   2   -0.65    1.45
   0 -19  -2    0.17    1.31
   0 -19  -2    0.12    1.06
   3   8  -4   15.54    1.66
   3  -8  -4   13.28    1.51
   3  -8  -4   15.34    1.70
   0 -12  -7    7.50    1.32
   0 -12   7    6.06    1.46
   3  -5  -5   16.82    1.76
   3   5  -5   16.79    1.78
   3  -5  -5   16.09    1.52
   3   5  -5   20.13    1.61
   1  -6   8   16.68    1.76
  -1  -6  -8   16.09    1.64
  -1   6  -8   18.89    1.79
   2  16  -2    7.72    1.16
  -2 -16   2    7.84    1.60
   2 -16  -2    6.84    1.50
   3   9   3   94.22    5.14
   3  -9   3   99.54    5.05
  -3  -9  -3   89.38    4.99
   3  -9   3   96.31    4.90
   3 -11  -2  154.04    8.00
   3  11  -2  166.43    8.08
  -3 -11   2  156.48    7.97
   3 -11  -2  158.49    8.07
   2  -7  -7    0.72    1.28
   2   7  -7    0.55    0.93
  -2  -7   7    0.51    1.09
   2   7  -7   -0.58    1.13
   3 -10  -3    5.27    1.29
   3  10  -3    5.78    1.36
   3 -10  -3    7.53    1.27
   2  15   3   59.97    3.57
   2 -15   3   63.22    3.54
  -3   0  -5  221.80   10.88
  -2  12  -5   89.48    4.58
   2 -12   5   94.05    4.50
   2  12   5   81.94    4.54
  -2 -12  -5   89.90    4.68
  -3   1  -5    9.73    1.11
  -3  -1  -5    5.96    1.08
  -2   5  -7   51.16    3.05
  -2  -5  -7   52.08    3.04
   3  -7   4  146.31    7.46
   3   7   4  146.75    7.56
   3  -7   4  159.14    7.43
  -3  -7  -4  134.77    7.39
  -1 -19   0  516.75   23.56
   1 -19   0  452.54   23.39
   1 -19   0  488.17   23.45
  -3   2  -5   10.38    1.11
  -3  -2  -5    9.57    1.17
   2  16   2    3.69    1.03
  -2 -16  -2    4.13    1.45
   2 -16   2    3.57    0.93
   1 -17  -4   67.18    3.91
   1 -17  -4   65.56    3.69
  -1 -17   4   70.63    4.00
   0  -9   8   54.29    3.38
   0  -9  -8   60.03    3.26
   0   9  -8   53.25    3.47
   2 -13  -5   16.82    1.80
  -2 -13   5   15.98    1.66
   2 -13  -5   14.50    1.51
  -1 -18   3   -0.50    1.55
   1 -18  -3    0.37    1.11
   1 -18  -3    1.92    1.35
   1 -19  -1    7.03    1.39
   1 -19  -1    6.49    1.33
  -1 -19   1    8.77    1.75
   2  14   4   67.25    4.04
   2 -14   4   70.96    3.90
  -2 -14  -4   76.89    4.23
   1 -14  -6    1.31    1.02
  -1 -14   6    0.02    1.31
   1 -14  -6    0.55    1.39
   3   6  -5  167.99    8.22
   3  -6  -5  156.65    8.22
   3  -6  -5  153.14    8.07
   3   6  -5  165.15    8.11
  -1 -11  -7   99.11    5.10
  -1  11  -7   92.85    5.16
   1 -11   7   92.00    5.07
   0   0  -9    0.39    1.21
   3 -12   0  125.80    6.60
  -3 -12   0  119.56    6.52
   3  12   0  136.07    6.66
  -1 -19  -1   12.43    1.81
   1 -19   1   11.12    1.51
   1 -19   1    9.74    1.50
   0  -1  -9    1.76    1.23
   0   1  -9    1.41    1.30
   1   8  -8   59.82    3.59
   1  -8  -8   62.51    3.33
  -1  -8   8   58.53    3.53
   3   3   5   12.69    1.63
  -3  -3  -5   13.12    1.31
  -3   3  -5   14.85    1.23
  -1  -7  -8  334.71   16.49
   1  -7   8  334.75   16.54
  -1   7  -8  343.53   16.57
   2 -11  -6   12.68    1.67
  -2 -11   6   15.56    1.58
  -3 -12   1   -0.03    1.09
   3  12  -1   -0.61    1.24
   3 -12  -1   -0.20    1.25
   3 -11   2   -0.39    1.11
   3  11   2   -0.06    1.31
  -3 -11  -2   -0.18    1.17
   3  -9  -4   17.86    1.76
   3  -9  -4   21.10    1.85
   3   9  -4   19.88    1.84
   2 -10   6   41.32    2.56
   2 -10   6   39.28    2.41
  -2  10  -6   45.74    2.66
  -2 -10  -6   42.45    2.69
   0  -2  -9   58.15    3.39
   0   2  -9   58.98    3.47
  -1 -18  -3  207.83    9.29
   1 -18   3  162.12    9.06
   1 -17   4   11.52    1.46
  -1 -17  -4   13.46    1.72
  -1 -17  -4   12.06    1.25
  -2  -6  -7    7.25    1.28
  -2   6  -7    6.23    1.27
   0 -20   0   39.80    2.43
   0 -20   0   39.90    2.78
   0 -15   6    6.52    1.55
   0 -15  -6    9.91    1.43
   0 -15  -6    9.55    1.47
   2   8  -7   14.29    1.29
   2  -8  -7   13.59    1.69
  -2  -8   7   15.37    1.55
  -2 -17   0   88.56    4.87
   2 -17   0  100.58    4.86
   1 -16  -5   31.72    2.41
  -1 -16   5   32.75    2.44
   1 -16  -5   33.26    2.15
   0 -18  -4    7.44    1.33
   0 -18  -4    9.12    1.49
   0 -18   4    6.48    1.50
   3 -12   1   95.10    5.24
   3  12   1  100.96    5.31
  -3 -12  -1  102.44    5.26
   3   4   5    5.19    1.44
  -3  -4  -5    6.21    1.14
   3 -10   3    0.65    1.09
  -3 -10  -3    1.09    1.17
   3  10   3    1.52    1.39
   0   3  -9   25.67    2.11
   0  -3  -9   26.32    1.98
   2  17  -1    5.23    1.04
  -2 -17   1    5.81    1.53
   2 -17  -1    6.32    1.48
   1 -12  -7  155.41    8.03
   1 -12  -7  168.62    8.28
  -1 -12   7  160.22    8.23
  -3  -8  -4   78.99    4.57
   3  -8   4   81.68    4.59
   3   8   4   85.84    4.74
  -1 -14  -6   43.36    2.75
   1 -14   6   39.40    2.63
  -1 -14  -6   38.79    2.54
   0 -19  -3    0.57    1.34
   0 -19   3    0.16    1.43
   0 -19  -3    1.07    1.14
   0 -20  -1   71.46    3.97
   0 -20  -1   63.73    3.70
   0 -20   1   69.52    4.04
   2 -16  -3   35.18    2.51
   2 -16  -3   32.21    2.12
  -2 -16   3   34.14    2.51
   1 -19  -2   24.72    1.91
   1 -19  -2   25.38    2.06
  -1 -19   2   28.10    2.33
  -2 -15   4    3.83    1.45
   2 -15  -4    2.93    1.44
   2 -15  -4    2.45    1.06
   3 -11  -3   28.51    2.27
   3 -11  -3   32.22    2.21
   3  11  -3   34.59    2.31
   3  -7  -5   26.42    2.16
   3   7  -5   29.80    2.20
   3  -7  -5   24.82    1.99
   2 -17   1   30.82    2.30
  -2 -17  -1   33.79    2.41
   2   0  -8   38.30    2.38
   2   0  -8   34.99    2.43
   0 -13   7   24.37    2.03
   0 -13  -7   22.13    1.84
   0 -13  -7   19.38    1.97
   3  12  -2    7.17    1.39
   3 -12  -2    8.39    1.20
   3 -12  -2    5.59    1.40
  -3 -12   2    6.88    1.29
   2   1  -8   18.30    1.71
   2   1  -8   20.04    1.63
   2  -1  -8   17.99    1.63
   3   0  -6   -0.31    1.26
   3  -1  -6    1.45    1.30
   3   1  -6    1.99    1.28
   0   4  -9  106.60    6.15
   0  -4  -9  125.60    6.08
   1 -19   2    0.24    1.22
  -1 -19  -2    0.70    1.49
  -1 -16  -5   45.13    2.76
   1 -16   5   44.80    2.91
  -1 -16  -5   52.84    3.08
   0 -17   5    7.10    1.49
   0 -17  -5    7.33    1.38
   0 -17  -5    7.89    1.41
  -1  -8  -8    4.58    1.29
   1  -8   8    3.65    1.38
  -1   8  -8    5.48    1.43
   2   2  -8   58.16    3.34
   2   2  -8   56.81    3.41
   2  -2  -8   65.36    3.49
   0  10  -8   82.42    4.68
   0 -10   8   82.76    4.64
   0 -10  -8   83.97    4.50
   3   5   5    3.76    1.42
  -3  -5  -5    5.15    1.08
   2 -13   5  140.29    7.18
   2  13   5  130.84    7.30
   2 -13   5  150.55    7.31
  -2  13  -5  148.32    7.40
  -2 -13  -5  155.72    7.48
  -2  -7  -7   80.66    4.50
  -2   7  -7   86.31    4.56
   3   2  -6    4.82    1.27
   3  -2  -6    5.12    1.39
   1  -9  -8    9.71    1.72
   1   9  -8    7.64    1.59
  -1  -9   8    8.24    1.53
   1  -9  -8    9.47    1.12
   1   0  -9   28.86    2.11
   1  -1  -9  370.99   17.62
   1   1  -9  352.54   17.62
   2  17  -2    5.22    1.16
   2 -17  -2    5.94    1.50
  -2 -17   2    6.39    1.65
   2   3  -8  177.96    9.16
   2   3  -8  197.77    9.08
   2  -3  -8  198.09    9.26
   3 -10  -4   39.82    2.61
   3  10  -4   39.67    2.61
   3 -10  -4   37.08    2.55
   2 -16   3   92.24    5.23
   2  16   3   91.20    5.24
  -1 -12  -7   33.59    2.25
  -1  12  -7   30.94    2.34
   1   2  -9   64.42    3.78
   1  -2  -9   70.50    3.73
  -2  -9   7   -0.44    1.18
   2  -9  -7   -0.91    1.41
   3   3  -6    1.32    1.16
   3  -3  -6    0.55    0.91
   3  -3  -6    0.52    1.27
   2 -12  -6    2.77    1.40
  -2 -12   6    1.85    1.25
  -2  11  -6   29.74    2.15
  -2 -11  -6   28.44    2.23
   2 -11   6   26.11    1.82
   2 -11   6   33.36    2.05
   0  -5  -9   40.84    2.54
   0   5  -9   37.97    2.68
   2 -14  -5   24.16    1.77
  -2 -14   5   17.97    1.81
   2 -14  -5   19.82    2.01
   3 -13   0   28.52    2.21
   3  13   0   28.25    2.12
  -3 -13   0   27.04    2.06
   0 -20  -2   -0.11    1.37
   0 -20  -2    0.27    1.07
   0 -20   2    1.85    1.48
   3 -12   2  134.78    7.19
   3  12   2  148.29    7.30
  -3 -12  -2  142.52    7.25
  -3  -9  -4   26.83    2.15
   3   9   4   32.22    2.33
   3  -9   4   32.37    2.18
   3  -9   4   34.97    2.04
  -3 -13   1   11.57    1.48
   3 -13  -1   12.85    1.57
   3  13  -1    9.73    1.45
   3  -8  -5  222.12   11.02
   3  -8  -5  208.44   10.90
   3   8  -5  228.46   11.02
   2  15   4   23.96    1.93
   2 -15   4   27.67    1.95
   1   3  -9   98.29    5.53
   1  -3  -9  111.91    5.48
  -1 -15   6    1.08    1.38
   1 -15  -6    2.55    1.03
   1 -15  -6    2.96    1.45
  -3  -6  -5   11.14    1.32
   3   6   5   12.47    1.65
   3  -6   5   12.32    1.45
   2   4  -8    0.12    1.10
   2  -4  -8    1.05    1.33
   2   4  -8    0.47    1.01
  -2 -17  -2   43.54    2.96
   3 -11   3    0.46    1.11
  -3 -11  -3   -0.35    1.13
   3  11   3    0.87    1.34
   3   4  -6    5.31    1.25
   3  -4  -6    4.12    1.38
   3  -4  -6    4.76    1.09
  -1 -18   4   56.23    3.52
   1 -18  -4   60.07    3.49
   1 -18  -4   54.15    3.25
  -2  -8  -7  169.29    9.07
  -2   8  -7  195.47    9.15
   3  13   1   13.90    1.58
  -3 -13  -1   13.10    1.54
   3 -13   1   11.52    1.44
  -1   9  -8   36.34    2.67
  -1  -9  -8   40.70    2.57
   1  -9   8   39.38    2.61
   1 -20   0    3.13    1.27
  -1 -20   0    3.18    1.57
   1 -20   0    3.29    1.32
   1 -13  -7    0.40    1.44
   1 -13  -7   -0.52    1.03
  -1 -13   7    0.34    1.35
   1  -4  -9    0.81    1.02
   1   4  -9    1.40    1.27
   3 -12  -3   42.58    2.57
   3  12  -3   44.76    2.71
   3 -12  -3   39.68    2.72
  -1 -19   3    0.08    1.61
   1 -19  -3   -0.13    1.33
   1 -19  -3    0.63    1.11
   0  -6  -9    9.83    1.37
   0   6  -9    9.59    1.58
   0  -6   9    7.83    1.51
  -1   0  -9  125.08    6.50
   0 -16  -6    3.73    1.36
   0 -16   6    2.84    1.43
   0 -16  -6    3.55    1.35
   1  10  -8  143.85    7.46
  -1 -10   8  136.33    7.44
   1 -10  -8  142.01    7.52
   1 -10  -8  151.68    7.27
  -1  -1  -9  185.50    9.32
  -1   1  -9  184.27    9.32
   1 -20  -1   30.90    2.28
   1 -20  -1   29.86    2.22
  -1 -20   1   33.97    2.59
   2  -5  -8   79.03    4.19
   2   5  -8   78.27    3.99
   0  11  -8    5.08    1.56
   0 -11   8    4.94    1.52
   0 -11  -8    5.34    1.27
   3 -13  -2   -0.21    1.27
   3  13  -2   -0.39    1.23
  -3 -13   2   -0.26    1.20
   3 -13  -2    1.16    0.96
   3   5  -6   25.07    1.90
   3  -5  -6   23.73    1.86
   3  -5  -6   29.06    2.15
   1 -18   4  136.95    7.38
  -1 -18  -4  155.67    7.60
   1 -17  -5  159.43    8.05
  -1 -17   5  150.15    8.00
   1 -17  -5  157.04    7.85
  -1 -20  -1   45.04    3.16
   1 -20   1   41.46    2.85
   1 -20   1   51.05    2.92
  -1 -15  -6    0.12    1.08
   1 -15   6    0.84    1.28
  -1 -15  -6   -0.02    1.37
   0 -14   7   10.18    1.62
   0 -14  -7   11.90    1.48
   0 -14  -7    9.04    1.58
  -1  -2  -9   42.57    2.80
  -1   2  -9   45.17    2.82
  -2 -18   0   46.53    3.02
   2 -18   0   42.37    2.96
   3  -7   5    2.42    1.13
   3   7   5    1.27    1.40
  -3  -7  -5    2.61    1.16
   3  -7   5    2.69    1.16
  -1 -19  -3    3.93    1.59
   1 -19   3    3.75    1.25
   2 -10  -7    6.65    1.55
  -2 -10   7    7.41    1.36
  -2 -16   4    6.26    1.49
   2 -16  -4    3.46    1.55
   2 -16  -4    5.50    1.07
   3 -11  -4    2.93    1.23
   3 -11  -4    2.77    1.32
   3  11  -4    2.01    1.31
  -2   0  -8   29.22    2.11
   1   5  -9   29.66    2.29
   1  -5  -9   35.11    2.13
  -2 -18   1   26.36    2.22
   2 -18  -1   20.15    2.04
   2 -17  -3   -0.05    1.42
  -2 -17   3    1.71    1.45
   2 -14   5    2.12    1.05
   2  14   5    0.76    1.06
  -2 -14  -5    0.86    1.36
  -2  14  -5    0.95    1.18
   3  -9  -5  367.71   18.90
   3  -9  -5  381.61   18.97
   3   9  -5  413.73   18.98
   0 -19  -4   15.11    1.70
   0 -19   4   13.10    1.73
   0 -19  -4   14.70    1.56
  -2  -1  -8   16.52    1.57
  -2   1  -8   13.44    1.58
  -1   3  -9   18.44    1.80
  -1  -3  -9   14.11    1.67
   3 -10   4    3.95    1.14
   3  10   4    2.72    1.41
  -3 -10  -4    1.87    1.22
   0 -21   0   -1.44    0.99
   0 -21   0   -0.09    1.48
  -1 -13  -7   30.11    2.36
   1 -13   7   28.84    2.30
  -1  13  -7   33.04    2.47
  -1 -13  -7   33.11    2.33
   2 -12   6    2.50    1.11
   2  12   6    1.69    1.16
  -2  12  -6    1.62    1.21
  -2 -12  -6    1.30    1.32
  -2  -2  -8   62.88    3.60
  -2   2  -8   64.93    3.62
   2 -18   1   16.05    1.82
  -2 -18  -1   18.48    2.02
  -3   0  -6   -0.26    0.93
   3   0   6    0.51    1.37
   0  -7  -9   25.21    1.96
   0  -7   9   28.23    2.14
   0  -7   9   26.91    2.12
   0   7  -9   22.41    2.14
   0  -7  -9   27.39    2.72
   2  -6  -8    7.40    1.54
  -2  -6   8    4.81    1.20
   2   6  -8    7.25    1.17
   2   6  -8    4.49    1.21
   2  -6  -8    8.03    2.10
   1 -17   5  106.43    5.63
  -1 -17  -5  105.46    5.78
  -1 -17  -5  111.41    5.81
  -1 -17  -5  102.90    5.48
   0 -20   3   64.54    4.04
   0 -20  -3   70.49    4.00
   0 -20   3   67.96    4.10
   0 -20   3   72.38    4.50
   0 -20  -3   70.73    3.84
  -3   1  -6    7.69    1.09
  -3  -1  -6    8.96    1.11
   3   1   6    6.62    1.56
   3  -1   6    6.87    1.51
   2 -13  -6   16.97    1.67
   2 -13  -6   18.79    2.25
  -2 -13   6   17.12    1.74
   2 -13  -6   18.12    1.91
  -2   9  -7   25.49    1.96
   2  -9   7   21.20    1.60
  -2  -9  -7   21.92    1.92
  -2  -9  -7   21.46    1.94
   3  -6  -6    9.79    1.35
   3  -6  -6   15.37    2.36
   3   6  -6   13.91    1.86
   3   6  -6   11.77    1.36
   3  -6  -6    8.46    1.62
   3 -13   2   66.74    3.90
   3  13   2   71.07    3.96
   3 -13   2   73.99    4.16
  -3 -13  -2   69.97    3.99
   4   0   0   -0.02    1.25
   4   0   0    2.51    2.09
   4   0   0    0.41    1.22
   1 -20  -2   14.28    2.12
   1 -20  -2   14.98    1.64
   1 -20  -2   10.04    1.90
   1 -20  -2   13.07    1.51
  -1 -20   2   12.53    1.74
  -1 -20   2   10.49    1.91
   0 -18  -5   27.10    2.02
   0 -18   5   25.37    2.21
   0 -18   5   24.53    2.15
   0 -18  -5   25.74    2.10
   0 -21  -1   10.77    1.64
   0 -21  -1   11.29    1.30
   0 -21   1   11.55    1.69
   0 -21   1   11.08    1.75
   4   1   0   17.31    1.66
   4  -1   0   18.75    2.53
   4   1   0   20.32    2.19
   4   1   0   14.01    1.64
   4  -1   0   19.47    2.26
   4   1   0   19.88    2.54
   4  -1   0   15.72    1.71
   4  -1   0   14.74    1.59
   4   0  -1    3.00    2.17
   4   0  -1    0.40    1.21
   4   0  -1    1.51    1.27
   4   0  -1    2.54    1.94
  -1   4  -9    2.30    1.16
   1  -4   9    0.62    1.19
  -1  -4  -9    2.22    1.21
  -1   4  -9    2.79    1.43
  -1  -4  -9    2.52    1.29
   3  14   0   25.06    1.96
   3 -14   0   26.14    2.49
  -3 -14   0   22.00    1.94
   3 -14   0   24.58    2.09
   3 -14   0   23.31    2.21
  -1 -10  -8    2.60    1.29
   1 -10   8    3.63    1.38
  -1  10  -8    4.14    1.48
   1 -10   8    4.01    1.43
  -1 -10  -8    2.76    1.30
   3  -2   6  110.51    6.34
   3   2   6  118.11    6.26
   3  -2   6  117.04    6.22
   3   2   6  113.43    6.41
  -3  -2  -6  121.86    6.02
   3  -2   6  112.27    6.38
  -3   2  -6  123.38    6.00
   3 -12   3  226.32   10.53
   3 -12   3  210.83   10.23
   3  12   3  194.43   10.10
   3 -12   3  203.24   10.02
  -3 -12  -3  184.91   10.04
  -2  -3  -8   83.60    4.44
   2   3   8   73.86    4.78
  -2  -3  -8   74.68    4.42
   4  -1  -1   60.70    3.36
   4   1  -1   55.34    3.34
   4  -1  -1   51.29    3.90
   4   1  -1   57.15    3.82
   4  -1  -1   55.86    3.80
   4   1  -1   58.02    3.30
   4   1  -1   50.36    3.93
   4  -1  -1   50.03    4.29
   4  -1  -1   55.93    3.26
   2  15  -5   32.26    3.20
   2 -15  -5   35.90    2.77
   2 -15  -5   29.89    3.05
   2 -15  -5   31.54    2.17
   2 -15  -5   36.67    2.54
  -2 -15   5   27.36    2.28
   3 -14  -1   27.84    2.45
   3  14  -1   34.72    2.76
   3  14  -1   26.98    2.79
   3 -14  -1   32.53    2.74
   3 -14  -1   26.79    3.20
  -3 -14   1   34.75    2.31
   3  14  -1   34.03    2.27
   3 -14  -1   31.28    2.36
   1   6  -9   23.79    3.06
   1  -6  -9   32.33    1.91
   1  -6  -9   25.91    2.67
   1  -6  -9   30.85    2.44
   1   6  -9   26.88    2.15
   1  -6  -9   27.07    2.49
   1   6  -9   19.01    1.73
  -1  -6   9   27.06    2.15
   4   2   0    2.20    1.88
   4  -2   0    0.23    1.27
   4  -2   0    1.76    1.92
   4   2   0    3.74    2.24
   4  -2   0   -0.11    1.15
   4   2   0    0.18    1.24
   4   2   0    1.44    1.87
   4   2   0   -1.43    1.33
   4  -2   0    3.11    1.84
   4  -2   0    1.20    2.12
  -1 -20  -2   61.50    3.72
   1 -20   2   55.36    4.02
   1 -20   2   53.44    3.49
   2 -17   3    6.41    1.94
   2 -17   3    4.59    1.05
  -2 -17  -3    5.51    1.51
   2 -17   3    4.73    1.53
  -2 -17  -3    7.23    1.66
   4  -2  -1   52.53    3.53
   4  -2  -1   55.50    4.10
   4  -2  -1   50.66    3.40
   4   2  -1   50.78    3.53
   4   2  -1   38.04    2.64
   4  -2  -1   41.30    2.78
   4   2  -1   49.03    3.15
   4  -2  -1   35.49    2.59
   4   2  -1   33.11    2.73
   4   2  -1   48.46    3.28
   4  -2  -1   48.17    3.07
   3  -8   5  339.02   15.70
   3  -8   5  333.01   15.87
   3   8   5  312.34   15.83
   3  -8   5  337.26   15.98
   3  -8   5  350.03   16.12
   3  -8   5  319.11   15.73
  -3  -8  -5  281.46   15.70
  -2 -18   2   31.62    2.50
  -2 -18   2   27.66    2.40
   2  18  -2   28.43    2.94
   2 -18  -2   29.14    2.58
   2 -18  -2   36.08    2.50
   2 -18  -2   30.61    2.77
   2 -18  -2   33.79    2.77
   3  -3   6    7.48    2.11
   3  -3   6    5.52    1.80
   3  -3   6    9.13    1.58
  -3  -3  -6    9.45    1.23
   3   3   6    6.15    2.17
   3   3   6    8.19    1.66
  -3   3  -6   10.02    1.13
   1 -11  -8  151.89    7.26
   1 -11  -8  139.16    7.08
   1 -11  -8  127.83    6.71
  -1 -11   8  127.48    6.91
   1 -11  -8  123.34    6.99
   1 -11  -8  141.24    7.01
   1  11  -8  140.74    7.47
  -1 -11   8  121.38    6.90
   2 -16   4    0.03    1.35
   2  16   4    2.09    0.97
   2 -16   4    3.22    2.23
  -2 -16  -4    2.35    1.42
  -2 -16  -4    1.02    1.45
   2 -16   4    1.76    1.02
  -1 -16   6    2.27    1.42
   1 -16  -6    2.74    2.27
   1 -16  -6    3.60    1.63
   1 -16  -6    3.37    1.49
   1 -16  -6    2.33    1.07
  -1 -16   6    1.42    1.46
   4   0   1   -2.07    1.84
   4   0   1    0.65    1.21
   4   0   1    0.63    1.79
   4   0   1    0.39    1.24
   4   0   1   -0.55    1.90
   4   0   1   -1.27    2.07
  -2  -4  -8   34.31    2.28
  -2   4  -8   31.36    2.30
  -2   4  -8   35.40    2.33
   2  -4   8   32.99    2.28
  -2  -4  -8   31.40    2.25
   2   4   8   31.84    2.84
   3  14   1    2.14    2.44
   3  14   1    7.49    1.82
   3 -14   1    5.90    2.33
   3  14   1    7.06    1.33
   3 -14   1    5.62    1.62
   3 -14   1    4.55    1.84
  -3 -14  -1    9.61    1.45
   4   3   0  183.08    9.14
   4  -3   0  198.76    9.34
   4   3   0  153.97    8.80
   4  -3   0  161.67    8.72
   4   3   0  195.71    9.41
   4  -3   0  197.96    9.23
   4   3   0  185.50    9.10
   4  -3   0  193.77    9.06
   4   3   0  161.80    8.75
   4  -3   0  169.85    8.93
   4  -3   0  167.60    8.84
   3 -13  -3    4.09    2.05
   3 -13  -3    2.53    1.13
   3  13  -3    3.85    2.11
   3 -13  -3    4.44    1.70
  -3 -13   3    1.74    1.11
   3 -13  -3    2.89    1.51
   3 -13  -3    1.85    1.39
   3 -13  -3    3.45    2.63
   3  13  -3    3.38    1.28
   3 -13  -3    2.91    1.89
   3  13  -3    2.77    1.67
   3  13  -3    6.48    3.07
   4  -1   1   -0.94    2.01
   4   1   1    2.02    1.87
   4  -1   1    0.19    1.27
   4   1   1    4.71    2.20
   4   1   1   -0.60    1.23
   4  -1   1   -0.28    1.86
   4  -1   1    0.10    1.19
   4  -1   1    1.26    1.89
   4  -1   1    0.44    1.79
   4   1   1   -0.52    1.79
   4   1   1    2.61    1.82
   4   1   1   -0.61    1.34
   4   3  -1    3.47    1.84
   4   3  -1    1.53    1.40
   4  -3  -1    2.71    1.11
   4   3  -1    3.73    2.22
   4   3  -1   -1.18    2.75
   4  -3  -1    5.77    2.98
   4  -3  -1   10.00    2.46
   4  -3  -1    6.04    1.86
   4   3  -1    1.20    1.14
   4   3  -1    1.20    1.94
   4  -3  -1    3.54    1.37
   4  -3  -1    4.92    2.06
   0 -12   8  197.10   10.56
   0 -12  -8  231.56   10.51
   0 -12  -8  199.39   10.50
   0  12  -8  211.15   10.65
   0 -12  -8  202.33   10.60
   0 -12   8  206.34   10.61
   0 -12  -8  224.91   10.89
  -1 -14   7   22.79    2.07
   1 -14  -7   26.70    2.16
   1 -14  -7   19.82    2.40
   1 -14  -7   14.82    2.13
   1 -14  -7   25.05    1.76
   1 -14  -7   19.93    2.74
   1 -14  -7   23.26    2.28
  -1 -14   7   24.77    2.11
  -1   5  -9    0.49    1.39
   1  -5   9    0.13    1.27
  -1  -5  -9   -0.08    1.16
  -1  -5  -9   -0.63    1.19
   2   7  -8   95.61    4.81
   2  -7  -8   85.89    4.93
   2  -7  -8   99.93    5.22
   2   7  -8   95.75    5.49
   2   7  -8   91.91    5.03
   2  -7  -8   93.17    5.17
   2   7  -8   80.08    4.69
   2  -7  -8   88.98    5.28
  -2  -7   8   85.41    4.78
   4   0  -2   16.19    3.00
   4   0  -2   20.91    1.73
   4   0  -2   18.02    2.39
   4   0  -2   20.19    2.12
   4   0  -2   16.61    2.52
   4   0  -2   18.60    1.76
   2 -11  -7   72.01    4.03
   2  11  -7   71.66    4.38
   2 -11  -7   59.45    3.72
   2  11  -7   65.22    4.13
  -2 -11   7   58.09    3.60
   2 -11  -7   68.74    4.34
   2 -11  -7   57.04    3.83
   2 -11  -7   60.41    4.13
   3  -7  -6    7.27    1.81
   3   7  -6    6.21    2.17
   3  -7  -6    9.43    1.59
   3  -7  -6   10.03    1.86
   3   7  -6   12.06    1.84
   3  -7  -6   11.36    2.53
   3   7  -6    8.54    1.24
   3   7  -6    7.34    2.14
   3  -7  -6    9.02    1.37
   3  -7  -6    7.86    2.36
   3  -7  -6   10.40    1.98
   3  -7  -6    7.20    2.31
   3 -10  -5   80.19    4.43
   3 -10  -5   73.28    4.32
   3  10  -5   74.43    4.71
   3  10  -5   69.47    4.23
   3  10  -5   59.18    5.84
   3 -10  -5   81.94    4.76
   3 -10  -5   61.84    3.98
   3 -10  -5   75.92    4.64
   3 -10  -5   67.30    4.05
   4  -2   1   23.24    2.33
   4   2   1   26.81    2.29
   4  -2   1   18.72    1.76
   4   2   1   23.17    2.34
   4  -2   1   28.57    2.72
   4   2   1   15.15    1.86
   4  -2   1   18.55    1.89
   4  -2   1   24.73    2.36
   4   2   1   22.42    2.34
   4   2   1   17.59    1.82
   4   2   1   27.56    2.77
   4  -2   1   23.59    2.52
   0  -8  -9   16.05    1.57
   0   8  -9   15.13    1.85
   0  -8  -9   13.22    2.38
   0  -8   9   16.49    1.76
   0  -8  -9    9.74    1.93
   0  -8   9   12.71    1.79
   0  -8  -9   16.88    1.57
   4   1  -2    7.38    1.50
   4  -1  -2    6.58    1.41
   4  -1  -2   10.25    1.86
   4  -1  -2   10.79    2.15
   4  -1  -2    9.26    1.79
   4   1  -2   13.33    2.29
   4  -1  -2    9.01    2.94
   4   1  -2    4.53    1.28
   4   1  -2    5.05    1.75
   4  -1  -2   10.27    2.33
   4   1  -2    4.66    1.27
   4   1  -2    7.89    2.07
   4  -1  -2    4.78    1.22
   4   1  -2    8.14    2.87
   2 -18   2   33.00    2.80
   2 -18   2   32.18    2.81
  -2 -18  -2   31.21    2.48
   2 -18   2   27.36    2.48
  -2 -18  -2   35.29    2.51
  -3  -4  -6    0.70    1.07
   3  -4   6    3.68    1.98
   3  -4   6    3.01    1.73
   3   4   6    1.29    1.56
   3   4   6    4.63    1.61
   3   4   6    2.29    2.07
  -3   4  -6    1.99    0.90
   3  -4   6    3.59    2.11
   3  -4   6    3.28    1.43
   3 -14  -2   27.09    2.56
   3  14  -2   28.59    2.43
   3  14  -2   22.08    2.96
  -3 -14   2   22.26    1.92
   3 -14  -2   23.16    1.75
   3 -14  -2   19.85    2.43
   3 -14  -2   24.03    2.04
   3  14  -2   17.00    2.69
   3 -14  -2   25.38    3.03
   3  14  -2   23.50    1.94
   3 -14  -2   19.09    2.15
   3 -14  -2   23.54    2.34
   3  14  -2   20.88    2.56
   0 -21   2    2.85    1.54
   0 -21  -2    2.95    1.06
   0 -21   2    2.54    1.46
   0 -21   2    6.15    2.21
   0 -21  -2    3.67    1.43
   0 -21  -2    2.69    1.37
   0 -21  -2    4.53    1.66
   3  12  -4   77.90    4.65
   3  12  -4   84.20    5.75
   3 -12  -4   66.05    4.40
   3  12  -4   78.98    4.45
   3 -12  -4   69.43    4.36
   3 -12  -4   76.36    4.67
   3 -12  -4   92.08    4.92
   3 -12  -4   92.75    4.84
   3 -12  -4   93.42    5.19
   3 -12  -4   91.33    5.10
   3  12  -4   90.84    5.17
   3 -11   4   30.69    2.89
  -3 -11  -4   20.99    1.97
   3 -11   4   27.07    2.22
  -3 -11  -4   19.61    1.89
   3 -11   4   20.65    1.78
   3 -11   4   23.52    2.36
   3  11   4   23.71    2.03
   3 -11   4   25.01    2.13
   3  11   4   27.46    2.90
   4   2  -2    3.13    1.76
   4   2  -2    2.38    2.09
   4  -2  -2    2.14    1.28
   4   2  -2    0.91    1.11
   4  -2  -2    2.69    1.75
   4  -2  -2    1.70    1.98
   4   2  -2    1.48    1.94
   4  -2  -2    2.10    2.34
   4  -2  -2    0.09    2.51
   4  -2  -2    1.28    2.19
   4   2  -2    1.10    1.43
   4   2  -2   -3.25    2.68
   4   2  -2    1.94    1.24
   4  -2  -2    1.84    2.94
   4  -2  -2    1.48    1.05
   4  -2  -2    2.22    1.58
   4   4   0    5.99    1.93
   4   4   0    6.78    2.33
   4   4   0    6.59    1.52
   4  -4   0   11.61    2.49
   4   4   0    8.18    1.64
   4   4   0    9.47    1.99
   4   4   0    7.61    1.30
   4  -4   0   11.15    2.02
   4  -4   0    9.21    1.51
   4  -4   0    8.39    1.90
   4  -4   0    9.52    1.26
   4  -4   0    5.90    2.67
   4  -4   0    6.24    2.25
   1  -7  -9   27.84    2.35
   1   7  -9   26.66    3.06
   1  -7  -9   33.83    2.72
  -1  -7   9   19.30    1.96
  -1  -7   9   21.25    2.02
   1   7  -9   23.06    2.02
   1  -7  -9   25.83    1.79
   1  -7  -9   29.93    2.51
   4  -4  -1  120.54    6.50
   4  -4  -1  108.42    6.45
   4   4  -1  126.99    6.30
   4   4  -1  134.84    6.68
   4  -4  -1  119.31    6.89
   4   4  -1  117.60    6.91
   4   4  -1  119.85    6.42
   4   4  -1  106.39    6.88
   4   4  -1  125.97    6.52
   4   4  -1  131.86    6.79
   4  -4  -1  133.62    6.45
   4  -4  -1  110.59    6.86
   4  -4  -1  132.56    6.57
   4  -4  -1  109.89    6.19
   4  -4  -1  124.76    7.25
   4  -4  -1  127.68    6.81
  -1 -19   4  235.04   12.34
   1 -19  -4  247.03   12.52
   1 -19  -4  251.01   12.30
   1 -19  -4  231.42   12.15
  -1 -19   4  268.93   12.39
   4  -3   1   18.18    2.20
   4   3   1   18.22    2.21
   4   3   1   17.91    1.66
   4   3   1   17.42    1.81
   4  -3   1   15.44    1.70
   4  -3   1   17.00    1.58
   4   3   1   13.15    2.54
   4  -3   1   16.69    2.52
   4  -3   1   16.51    2.17
   4   3   1   15.44    2.07
   4  -3   1   14.78    1.74
   4  -3   1   14.32    2.36
   4   3   1   15.06    2.12
   4  -3   1   13.72    2.63
   2  -5   8   60.98    3.36
  -2  -5  -8   54.91    3.31
  -2   5  -8   59.17    3.37
   2  -5   8   64.12    3.41
   2   5   8   58.26    3.81
  -2  -5  -8   55.57    3.35
  -2   5  -8   57.43    3.37
  -2 -10  -7   88.37    4.57
   2 -10   7   78.51    4.49
  -2 -10  -7   75.72    4.51
   2  10   7   65.51    4.77
   2 -10   7   86.53    4.46
  -2  10  -7   99.11    4.55
   2 -10   7   72.60    4.23
   0 -15  -7   59.50    3.52
   0 -15  -7   50.65    3.43
   0 -15   7   59.60    3.58
   0 -15  -7   66.19    3.49
   0 -15  -7   55.88    3.80
   0 -15   7   55.51    3.56
   0 -17   6    6.53    1.50
   0 -17   6    5.13    1.54
   0 -17  -6    7.40    1.40
   0 -17  -6    5.51    1.41
   0 -17  -6    4.73    1.38
   1 -16   6   14.56    1.67
   1 -16   6   13.33    2.16
  -1 -16  -6   11.86    1.73
  -1 -16  -6   16.66    1.81
   1 -16   6   13.07    1.67
  -1 -16  -6   14.82    1.45
   4   3  -2    5.63    1.19
   4   3  -2    1.78    2.61
   4  -3  -2    5.37    2.84
   4  -3  -2    5.84    1.59
   4  -3  -2    2.70    1.71
   4  -3  -2    1.73    1.77
   4  -3  -2    0.53    2.30
   4  -3  -2    3.69    2.44
   4   3  -2    4.38    1.98
   4  -3  -2    4.11    1.08
   4   3  -2    2.63    1.47
   4  -3  -2    5.21    2.03
   4   3  -2    3.24    1.74
   4   3  -2    4.42    1.32
   4   3  -2    4.01    2.10
   4  -3  -2    2.63    2.65
  -1  -6  -9   22.20    1.93
  -1  -6  -9   22.09    1.92
  -1   6  -9   27.40    2.17
   1  -6   9   27.84    2.07
  -2 -13  -6    0.91    1.36
  -2 -13  -6   -0.87    1.40
  -2  13  -6   -0.39    1.18
   2 -13   6    1.20    1.29
   2 -13   6    1.32    1.14
   2  13   6   -0.81    2.19
   2  13   6    1.11    1.11
   2  13   6    0.11    1.91
   2 -13   6    0.22    1.06
   3   9   5   14.62    1.70
   3  -9   5   17.78    1.41
   3   9   5   11.93    1.76
   3  -9   5   17.05    1.53
   3  -9   5    9.91    1.93
   3   9   5   10.41    2.20
   3   9   5    3.38    2.23
  -3  -9  -5   17.75    1.61
   3  -9   5   11.23    2.08
   3  -9   5    4.99    2.49
  -3  -9  -5   12.88    1.61
   3  -9   5   12.63    1.73
   2  15   5    3.85    1.79
   2 -15   5    2.93    1.09
   2  15   5    4.02    1.09
   2 -15   5    5.41    1.44
   2 -15   5    4.43    1.66
  -2  15  -5    3.16    1.23
  -2 -15  -5    5.83    1.46
  -2 -15  -5    3.97    1.42
  -1 -11  -8  214.49   10.31
   1 -11   8  210.87   10.35
  -1  11  -8  206.19   10.38
   1 -11   8  195.43   10.27
  -1 -11  -8  199.57   10.32
   3  -5   6   13.85    2.02
   3   5   6   13.85    2.34
   3   5   6   13.60    1.86
   3   5   6   17.38    1.81
   3  -5   6   17.58    2.19
  -3  -5  -6   14.40    1.56
   3  -5   6   12.59    2.39
   3   5   6   13.29    1.84
   3  -5   6   14.89    1.73
  -3  -5  -6   15.49    1.48
   3   0  -7   48.33    3.64
   3   0  -7   42.41    3.08
   3   0  -7   40.14    2.85
   3   0  -7   47.34    3.16
   3   0  -7   50.13    3.61
   3   0  -7   46.86    3.46
   3   0  -7   41.40    3.03
  -1 -18   5    8.85    1.72
  -1 -18   5    7.88    1.64
   1 -18  -5    8.05    1.80
   1 -18  -5    9.85    1.29
   1 -18  -5    9.64    1.61
   1 -20  -3    7.38    1.83
  -1 -20   3    5.94    1.60
   1 -20  -3    7.25    1.83
  -1 -20   3    3.91    1.66
   1 -20  -3    6.88    1.46
   1 -20  -3    4.74    1.21
   1 -20  -3    5.07    1.86
  -1 -21   0   30.22    2.64
   1 -21   0   32.41    2.58
   1 -21   0   28.26    2.21
   1 -21   0   35.57    2.87
   1 -21   0   31.55    2.25
   1 -21   0   31.41    2.29
   1 -21   0   34.41    2.86
  -1 -21   0   34.27    2.54
  -1 -21   0   26.08    2.40
   1 -14   7   52.38    3.30
   1 -14   7   54.24    3.33
  -1  14  -7   60.12    3.42
  -1 -14  -7   49.70    3.16
  -1 -14  -7   54.51    3.33
  -1 -14  -7   55.63    3.34
   3   1  -7   18.93    2.07
   3  -1  -7   14.07    1.78
   3  -1  -7   16.24    2.70
   3  -1  -7   22.30    2.15
   3  -1  -7   17.17    2.00
   3   1  -7   15.36    2.09
   3  -1  -7   23.68    2.71
   3   1  -7   15.21    2.09
   3   1  -7   14.70    2.69
   3  -1  -7   19.20    2.16
   3  -1  -7   19.00    2.54
   3   1  -7   18.18    2.46
   3   1  -7   15.36    1.79
   4  -4   1   24.57    2.93
   4  -4   1   25.37    1.84
   4  -4   1   24.62    2.82
   4  -4   1   22.58    2.01
   4   4   1   26.22    2.83
   4   4   1   25.40    2.43
   4   4   1   23.66    2.15
   4  -4   1   26.91    2.73
   4   4   1   22.04    2.30
   4   4   1   22.88    1.92
   4  -4   1   24.09    2.06
   4   4   1   29.11    2.54
   4  -4   1   26.82    2.45
   4   4   1   24.81    2.08
   4  -4   1   26.52    2.42
   4  -5   0   75.81    4.36
   4   5   0   81.58    4.66
   4   5   0   81.35    4.48
   4   5   0   89.67    4.90
   4  -5   0   89.66    5.23
   4  -5   0   84.29    4.76
   4  -5   0   71.65    4.59
   4   5   0   74.02    4.74
   4  -5   0   80.69    5.17
   4   5   0   83.88    4.92
   4  -5   0   78.18    4.53
   4  -5   0   84.08    4.62
   4   5   0   90.09    5.29
   4  -5   0   95.11    5.16
   4   5   0   88.51    4.80
   4  -5   0   94.09    4.85
   2  17  -4  117.87    6.26
   2 -17  -4  119.26    6.77
   2 -17  -4  128.86    6.34
  -2 -17   4  112.29    6.23
   2 -17  -4  131.64    6.48
   2 -17  -4  126.10    6.56
   2 -17  -4  100.95    5.97
   2  17  -4  130.71    6.94
  -2 -17   4  108.97    6.21
   2 -17  -4  118.69    6.43
   1 -19   4   45.72    3.53
   1 -19   4   45.62    3.00
  -1 -19  -4   52.40    3.22
   1 -19   4   48.27    3.01
   1 -19   4   44.60    2.97
   2  14  -6    2.03    1.76
   2 -14  -6    1.57    2.22
   2 -14  -6    1.65    1.53
   2 -14  -6   -0.25    1.45
   2  14  -6    1.80    2.22
   2  14  -6    0.88    1.39
   2 -14  -6    0.98    1.49
  -2 -14   6    0.92    1.33
  -2 -14   6    0.20    1.31
   2 -14  -6    1.97    1.85
   2 -14  -6    2.00    1.58
   2 -14  -6    1.73    1.14
   2 -14  -6    2.33    1.86
   2   8  -8   58.65    3.80
   2  -8  -8   60.55    3.76
   2  -8  -8   45.94    3.35
   2  -8  -8   59.66    3.90
  -2  -8   8   47.75    3.14
   2   8  -8   54.69    3.49
  -2  -8   8   51.85    3.24
   2  -8  -8   65.64    3.77
   2   8  -8   52.97    3.20
   2  -8  -8   65.52    3.96
   2  -8  -8   55.30    3.64
   2   8  -8   65.35    4.12
   4  -5  -1    1.42    1.63
   4   5  -1    3.28    1.53
   4   5  -1    1.43    2.67
   4  -5  -1    1.05    1.66
   4  -5  -1    2.71    1.83
   4  -5  -1    2.85    2.25
   4  -5  -1    4.19    0.98
   4   5  -1    0.36    1.89
   4   5  -1    1.79    2.23
   4   5  -1    2.80    1.07
   4  -5  -1    0.03    2.44
   4  -5  -1   -0.42    2.64
   4  -5  -1    0.54    1.26
   4   5  -1   -0.39    1.59
   4   5  -1    3.54    1.82
   4   5  -1    2.03    1.37
   4  -5  -1    2.94    1.34
  -3 -14  -2    0.71    1.26
   3 -14   2    2.76    2.25
   3 -14   2    0.78    1.71
  -3 -14  -2    1.62    1.30
   3 -14   2    0.85    1.48
   3  14   2    0.14    1.56
   3 -14   2    1.04    1.48
   3 -14   2    1.83    1.58
   3 -14   2    0.56    1.09
   3  14   2    0.31    1.19
   3  14   2   -1.21    2.43
   3 -13   3    9.63    1.81
   3 -13   3    6.46    1.70
  -3 -13  -3   11.91    1.58
   3 -13   3   10.17    1.67
   3  13   3    7.59    2.55
   3 -13   3   11.61    1.94
   3  13   3   13.15    1.54
   3 -13   3   13.19    1.37
   3  13   3   10.48    1.73
  -3 -13  -3   10.88    1.55
   3 -13   3   10.46    2.46
   3  -8  -6    7.16    1.89
   3   8  -6    4.68    2.16
   3  -8  -6    5.72    2.43
   3  -8  -6    4.01    1.75
   3   8  -6    8.56    1.73
   3  -8  -6    7.88    2.25
   3  -8  -6    6.04    1.43
   3   8  -6    6.36    2.20
   3  -8  -6    4.14    1.27
   3  -8  -6    6.70    2.39
   3  -8  -6    6.06    1.76
   2 -19   0    1.19    1.65
   2 -19   0    1.22    1.83
   2 -19   0    0.35    1.37
  -2 -19   0    1.58    1.51
   2 -19   0    0.49    1.97
   2 -19   0    1.01    2.22
   2 -19   0   -0.22    1.67
   2  19   0    1.32    1.72
  -2 -19   0    2.10    1.53
   4   0   2   16.07    1.68
   4   0   2   19.50    2.25
   4   0   2   12.34    1.65
   4   0   2   17.55    2.27
   4   0   2   20.21    2.51
   4   0   2   21.29    2.29
   4   0   2   11.15    1.66
   3  -2  -7    1.17    1.64
   3   2  -7    0.03    1.53
   3   2  -7    1.42    1.72
   3   2  -7    0.20    2.08
   3  -2  -7   -0.18    2.23
   3   2  -7   -0.86    2.26
   3  -2  -7    2.40    1.75
   3   2  -7    0.34    1.67
   3  -2  -7    0.79    1.35
   3  -2  -7    2.15    2.15
   3   2  -7    1.47    1.26
   3  -2  -7    2.28    1.54
   3  -2  -7    3.24    2.42
  -1 -21   1   67.28    3.99
   1 -21  -1   83.46    4.41
   1 -21  -1   67.80    3.82
  -1 -21   1   61.95    4.20
   1 -21  -1   65.63    4.18
   1 -21  -1   61.46    4.09
  -1 -21   1   71.79    4.12
   1 -21  -1   64.75    3.79
   1 -21  -1   52.87    3.68
   4   4  -2    1.09    2.01
   4  -4  -2   -1.94    1.91
   4  -4  -2    1.73    2.37
   4   4  -2    0.73    1.04
   4  -4  -2   -0.03    0.98
   4   4  -2   -0.63    1.27
   4   4  -2   -0.03    1.73
   4  -4  -2    1.03    1.48
   4   4  -2   -2.33    1.53
   4  -4  -2   -2.15    1.78
   4   4  -2   -3.83    2.65
   4   4  -2   -1.66    1.54
   4  -4  -2    0.54    2.18
   4  -4  -2   -1.07    2.62
   4  -4  -2    0.09    2.29
   4  -4  -2    0.36    2.82
   4  -4  -2    0.68    1.61
   4   4  -2   -1.81    2.11
   2  18  -3    0.91    2.18
   2  18  -3    1.15    2.01
   2 -18  -3    1.09    1.94
  -2 -18   3    0.03    1.45
   2 -18  -3    2.44    1.83
   2 -18  -3   -0.79    2.11
   2 -18  -3    0.74    1.86
   2 -18  -3    2.82    1.50
   2 -18  -3    1.64    1.61
   2  18  -3    1.15    1.40
  -2 -18   3    1.29    1.45
   4   1   2   27.08    2.57
   4   1   2   24.11    2.21
   4   1   2   29.72    2.61
   4  -1   2   23.35    2.77
   4  -1   2   31.47    2.74
   4   1   2   34.09    2.72
   4  -1   2   27.37    2.15
   4  -1   2   31.80    2.71
   4   1   2   29.25    2.23
   4  -1   2   32.56    2.64
   4  -1   2   29.75    2.27
   4  -1   2   29.70    2.19
   4  -1   2   32.81    2.85
   4   1   2   30.58    2.91
   4   1   2   29.88    2.20
  -2  -6  -8   27.17    2.17
   2  -6   8   34.71    2.26
  -2   6  -8   31.99    2.25
  -2   6  -8   31.87    2.24
  -2  -6  -8   27.72    2.17
   2  -6   8   36.88    2.28
   2  -6   8   21.59    2.59
   2   6   8   31.95    2.87
   1 -20   3   19.54    1.98
  -1 -20  -3   26.54    2.21
   1 -20   3   19.12    1.94
   1 -20   3   18.64    2.57
   1 -20   3   23.32    1.90
  -1 -20  -3   23.35    2.14
  -1 -21  -1    1.69    1.58
   1 -21   1    1.76    1.23
   1 -21   1    1.16    1.55
  -1 -21  -1    1.85    1.60
   1 -21   1   -0.73    2.01
  -1 -21  -1    0.42    1.58
   1 -21   1    0.97    1.22
   0   9  -9   64.54    3.80
   0  -9  -9   67.87    3.62
   0  -9   9   64.56    3.75
   0  -9  -9   66.81    4.22
   0  -9  -9   58.57    3.69
   0  -9  -9   57.19    3.60
   0  -9   9   63.43    3.75
   2  19  -1   36.59    3.08
   2 -19  -1   31.91    2.90
   2  19  -1   33.29    2.79
   2 -19  -1   37.15    3.03
  -2 -19   1   36.02    2.73
   2 -19  -1   42.90    3.10
  -2 -19   1   34.85    2.64
   2 -19  -1   34.97    2.82
   2 -19  -1   37.86    2.64
   2 -19  -1   30.15    2.87
   1  12  -8   -1.77    2.25
  -1 -12   8    1.05    1.47
   1 -12  -8    0.57    1.45
   1 -12  -8    0.16    1.01
   1 -12  -8   -0.02    1.11
  -1 -12   8    0.13    1.39
   1 -12  -8   -1.99    1.66
   1 -12  -8    0.51    1.95
   1 -12  -8    1.12    1.84
   1  12  -8   -0.79    2.09
   1 -12  -8   -1.59    1.66
   3 -15   0   23.83    2.22
  -3 -15   0   24.51    2.04
  -3 -15   0   27.31    2.08
   3  15   0   22.75    3.02
   3 -15   0   22.93    2.28
   3 -15   0   28.66    3.08
   3  15   0   28.59    2.00
   3  15   0   25.52    2.53
   3 -15   0   20.27    2.27
   3 -15   0   27.33    2.17
   3 -15   0   23.32    2.52
   3  15   0   23.34    2.41
   3 -15   0   25.55    2.34
   4  -2   2    0.99    1.88
   4  -2   2    1.15    1.99
   4   2   2    0.15    1.85
   4   2   2    0.80    1.22
   4   2   2    1.18    1.32
   4  -2   2    0.20    1.21
   4  -2   2    1.12    1.28
   4   2   2    1.36    1.82
   4  -2   2    1.22    1.87
   4   2   2   -0.83    2.13
   4  -2   2    1.47    1.24
   4   2   2   -0.87    1.75
   4   2   2    0.12    1.31
   4   2   2    1.07    1.23
   4  -2   2   -0.47    2.01
   4  -2   2    1.10    2.27
   1  -8  -9   19.66    1.65
   1  -8  -9   24.24    2.18
  -1  -8   9   18.27    1.88
  -1  -8   9   21.42    1.97
   1  -8  -9   21.52    2.28
   1  -8  -9   17.71    2.11
   1  -8  -9   20.90    1.60
   1   8  -9   18.69    2.80
   1   8  -9   21.19    1.97
   1   8  -9   18.75    2.11
   1  -8  -9   17.65    2.48
   3  15  -1   83.75    5.16
   3 -15  -1   69.95    4.96
   3  15  -1   89.28    4.66
   3 -15  -1   80.15    4.80
   3  15  -1   94.88    5.14
   3 -15  -1   95.28    4.81
   3 -15  -1  100.49    5.48
   3  15  -1   76.83    5.07
  -3 -15   1   82.58    4.67
   3  15  -1   76.59    5.36
  -3 -15   1   88.10    4.73
   3 -15  -1   90.44    5.01
   3 -15  -1   76.96    5.02
   3 -15  -1   84.57    4.90
   4   0  -3   -0.78    2.12
   4   0  -3    0.24    1.15
   4   0  -3   -1.28    2.61
   4   0  -3    1.06    1.43
   4   0  -3    0.12    1.52
   4   0  -3    0.35    1.68
   4   0  -3    2.06    2.02
   4   0  -3   -1.35    2.33
   3  -3  -7    9.07    1.58
   3  -3  -7   11.15    2.38
   3   3  -7    9.27    1.42
   3  -3  -7    8.95    1.21
   3  -3  -7    9.90    2.59
   3  -3  -7    9.41    1.68
   3  -3  -7   12.48    1.92
   3   3  -7   10.53    1.84
   3   3  -7   10.32    2.00
   3   3  -7   10.66    2.20
   3  -3  -7    9.02    1.90
   3   3  -7    9.88    1.80
   3  -3  -7   13.77    2.38
   3   3  -7   10.66    2.56
   0 -20  -4   -0.02    1.16
   0 -20  -4   -0.54    1.32
   0 -20   4    0.03    1.43
   0 -20   4    0.27    1.41
   0 -20  -4   -0.84    1.48
   0 -20   4   -1.12    2.34
   0 -20  -4    1.43    1.36
   1 -18   5   93.54    5.26
   1 -18   5   95.81    5.22
  -1 -18  -5   96.97    5.37
   1 -18   5   91.92    5.59
   1 -18   5   92.51    5.15
  -1 -18  -5  109.37    5.39
   4  -1  -3    1.81    1.74
   4  -1  -3    0.57    2.69
   4   1  -3    0.16    1.62
   4   1  -3    2.88    2.08
   4   1  -3   -0.21    2.30
   4  -1  -3    0.56    1.11
   4  -1  -3    0.65    2.24
   4  -1  -3    2.07    1.99
   4   1  -3    4.90    2.12
   4  -1  -3    0.53    1.51
   4  -1  -3   -2.34    2.47
   4   1  -3    1.60    1.60
   4   1  -3    0.43    1.18
   4   1  -3   -0.84    2.71
   4  -1  -3    1.37    1.35
   4   1  -3    0.60    1.40
   3 -11  -5    1.59    1.82
   3 -11  -5    0.78    2.36
   3 -11  -5    1.38    2.21
   3 -11  -5    0.04    1.27
   3 -11  -5   -0.56    1.33
   3 -11  -5    0.75    1.48
   3 -11  -5    0.30    1.73
   3  11  -5   -2.46    4.12
   3 -11  -5    0.82    1.99
   3  11  -5    0.12    2.13
   3 -11  -5    0.35    1.27
   3  11  -5   -1.51    1.96
   3  11  -5   -0.80    1.58
   3  -6   6   14.48    1.99
   3  -6   6   10.65    1.46
   3  -6   6   14.47    2.11
   3   6   6   13.41    2.04
  -3  -6  -6   10.68    1.50
   3  -6   6   13.59    1.68
   3   6   6   12.29    1.75
   3  -6   6   13.78    2.39
   3   6   6   11.43    1.65
   3   6   6   11.34    2.27
  -3  -6  -6   12.33    1.43
   4  -5   1    5.93    1.43
   4  -5   1    5.23    1.09
   4   5   1    5.95    1.61
   4  -5   1    4.73    1.87
   4  -5   1    2.17    1.35
   4   5   1    5.37    1.22
   4   5   1    1.53    1.81
   4   5   1    1.69    2.29
   4  -5   1    4.30    1.86
   4   5   1    0.65    1.77
   4   5   1    6.08    1.49
   4   5   1    4.59    1.81
   4  -5   1    1.44    2.50
   4  -5   1    3.59    1.34
   4  -5   1    3.29    2.31
   4   5   1    4.35    1.28
   2 -19   1   90.71    5.25
   2 -19   1   80.15    5.03
   2 -19   1   78.63    5.08
  -2 -19  -1   95.04    5.01
   2 -19   1   93.16    5.31
  -2 -19  -1   88.15    4.97
   2  19   1   76.42    4.94
   2 -19   1   93.75    4.95
   2 -16  -5    5.53    1.64
   2 -16  -5    5.93    1.69
   2 -16  -5    6.32    1.14
   2  16  -5    6.77    2.46
   2 -16  -5    4.91    1.90
   2  16  -5    6.60    1.50
  -2 -16   5    4.87    1.46
  -2 -16   5    3.55    1.38
   2 -16  -5    8.41    2.40
   2 -16  -5    8.76    1.80
   2 -16  -5    7.46    1.84
  -1  -7  -9    6.29    1.38
  -1   7  -9    6.39    1.55
   1  -7   9    9.20    1.54
  -1  -7  -9    7.06    1.39
   2  12  -7   64.50    4.34
   2  12  -7   66.42    4.10
  -2 -12   7   57.03    3.56
   2 -12  -7   68.13    4.33
   2 -12  -7   70.01    4.10
  -2 -12   7   55.90    3.58
   2 -12  -7   50.97    3.56
   2 -12  -7   64.35    3.72
   2  12  -7   55.45    3.69
   2 -12  -7   65.54    3.74
   2 -12  -7   66.28    3.98
   2 -12  -7   60.15    3.80
   0 -13  -8    0.30    1.23
   0 -13   8    0.43    1.44
   0 -13  -8    1.19    1.45
   0 -13  -8    2.36    1.90
   0 -13   8    0.91    1.43
   0 -13  -8    1.01    1.28
   0 -13  -8    1.40    1.24
   4   6   0    5.81    2.32
   4  -6   0    3.95    2.32
   4  -6   0    3.23    1.82
   4  -6   0    2.48    1.54
   4  -6   0    1.10    1.70
   4   6   0    0.05    1.07
   4   6   0    2.42    1.84
   4  -6   0    0.80    1.36
   4  -6   0    0.84    0.90
   4   6   0    0.32    1.43
   4  -6   0    0.85    1.35
   4  -6   0    3.91    2.49
   4  -6   0    1.81    2.68
   4   6   0    1.37    1.55
   4   6   0    2.66    1.86
   4   3   2   24.60    2.38
   4  -3   2   22.00    2.40
   4   3   2   20.47    1.92
   4  -3   2   23.41    1.86
   4   3   2   18.66    2.67
   4   3   2   19.62    2.22
   4   3   2   23.48    2.04
   4  -3   2   21.73    1.94
   4  -3   2   14.85    2.68
   4  -3   2   21.85    2.64
   4   3   2   22.71    2.33
   4   3   2   25.23    1.92
   4  -3   2   24.82    1.97
   4   3   2   20.63    1.97
   4  -3   2   23.91    2.40
   4   2  -3    3.70    2.65
   4  -2  -3    3.47    1.12
   4  -2  -3    5.13    2.06
   4  -2  -3    4.39    1.50
   4  -2  -3    2.68    2.81
   4   2  -3    2.70    1.68
   4  -2  -3    3.59    2.49
   4   2  -3    5.03    2.15
   4  -2  -3    3.18    1.76
   4   2  -3    2.23    1.28
   4   2  -3    2.17    1.61
   4  -2  -3    5.05    1.41
   4  -2  -3    0.68    2.23
   4   2  -3    3.15    2.11
   4   2  -3    3.40    1.48
  -3 -14   3    6.52    1.31
  -3 -14   3    5.74    1.28
   3 -14  -3    4.58    2.12
   3  14  -3    7.83    1.40
   3 -14  -3    6.89    1.87
   3 -14  -3    6.71    2.03
   3  14  -3    8.11    1.85
   3  14  -3    7.60    3.10
   3  14  -3    2.92    2.02
   3  14  -3    5.87    2.20
   3 -14  -3    5.90    1.61
   3 -14  -3    7.39    1.19
   3 -14  -3    5.19    2.12
   3 -14  -3    9.25    2.71
   3 -14  -3    9.05    1.55
   4  -5  -2   40.90    3.39
   4   5  -2   42.91    3.54
   4  -5  -2   42.24    3.48
   4  -5  -2   37.31    2.74
   4  -5  -2   39.58    2.58
   4   5  -2   42.14    2.91
   4  -5  -2   43.13    3.92
   4  -5  -2   36.99    2.41
   4   5  -2   36.65    2.72
   4  -5  -2   45.04    3.58
   4  -5  -2   39.86    3.77
   4  -5  -2   39.55    3.02
   4  -5  -2   40.61    2.98
   4  -5  -2   47.42    3.40
   4   5  -2   44.25    3.10
   4   5  -2   48.63    3.36
   4   5  -2   47.19    3.41
   4  -6  -1   18.34    2.55
   4  -6  -1   13.71    2.93
   4  -6  -1   16.79    2.33
   4   6  -1   11.53    2.70
   4   6  -1   13.48    2.26
   4  -6  -1   14.59    1.93
   4  -6  -1   13.44    1.84
   4   6  -1   15.37    2.56
   4   6  -1   13.16    1.89
   4   6  -1   12.83    1.35
   4  -6  -1    9.05    1.65
   4  -6  -1   14.57    2.07
   4   6  -1   12.32    1.74
   4  -6  -1   11.70    1.59
   4  -6  -1   10.94    1.20
   4   6  -1   11.07    1.67
   4   6  -1   14.60    2.13
   0 -19  -5   78.40    4.19
   0 -19   5   73.19    4.82
   0 -19  -5   84.67    4.32
   0 -19   5   73.00    4.29
   0 -19  -5   68.73    4.25
   0 -19  -5   69.72    4.31
   0 -19   5   74.88    4.37
   3 -15   1   37.69    2.57
   3 -15   1   30.52    2.86
   3  15   1   36.41    2.38
   3 -15   1   33.40    2.67
   3  15   1   35.93    3.47
   3  15   1   31.46    2.61
  -3 -15  -1   31.42    2.46
   3  15   1   34.73    2.73
   3 -15   1   37.76    2.58
  -3 -15  -1   35.01    2.48
   3 -15   1   44.51    3.31
   3 -15   1   36.26    2.76
   3 -12   4   48.24    3.30
  -3 -12  -4   48.16    3.24
   3 -12   4   54.09    3.19
   3 -12   4   51.17    3.64
   3 -12   4   74.72    4.09
   3 -12   4   48.90    3.47
  -3 -12  -4   54.23    3.34
   3  12   4   54.79    3.38
   3  12   4   54.11    3.34
   3  12   4   62.07    3.60
   3 -12   4   62.80    3.54
   3  12   4   68.47    4.28
   0 -22   0    0.24    1.48
   0 -22   0    1.79    1.48
   0 -22   0    1.73    1.45
   0 -22   0    4.92    1.93
   2 -11   7  217.51   11.21
   2  11   7  236.09   11.47
  -2 -11  -7  235.82   11.25
  -2 -11  -7  216.13   11.27
   2  11   7  219.62   11.53
   2 -11   7  222.62   11.18
  -2  11  -7  226.66   11.23
   1 -15  -7   -0.23    1.67
  -1 -15   7    1.35    1.48
   1 -15  -7   -0.02    1.00
  -1 -15   7   -1.45    1.41
   1  15  -7    0.94    1.87
   1 -15  -7    0.79    1.72
   1 -15  -7   -0.05    1.35
   1 -15  -7   -1.06    1.10
   1 -15  -7   -2.32    2.29
   3  -4  -7   14.18    2.01
   3   4  -7   15.10    1.89
   3  -4  -7   14.82    2.43
   3  -4  -7    7.45    1.29
   3   4  -7   12.70    2.21
   3  -4  -7   15.06    2.71
   3  -4  -7   13.10    1.72
   3   4  -7   12.72    2.10
   3  -4  -7   14.04    2.50
   3  -4  -7   11.20    1.97
   3   4  -7   12.45    1.45
   3   4  -7   12.84    1.94
   3  -4  -7    9.63    1.66
   3   4  -7   11.63    2.55
   0 -21  -3    4.70    1.60
   0 -21   3    5.13    1.54
   0 -21   3    5.90    1.52
   0 -21  -3    4.17    1.50
   0 -21   3    4.45    2.21
   0 -21  -3    5.57    1.47
   0 -21  -3    3.71    1.47
   0 -21  -3    4.61    1.17
   2 -18   3   -1.43    1.45
  -2 -18  -3   -0.75    1.47
   2 -18   3    0.57    1.95
  -2 -18  -3    0.32    1.49
   2 -18   3    0.37    1.86
   3 -13  -4  154.68    8.64
   3  13  -4  147.90    8.33
   3 -13  -4  172.28    8.17
   3  13  -4  118.58    8.31
   3  13  -4  185.33    8.26
   3 -13  -4  110.51    8.21
   3  13  -4  175.31    8.44
   3  13  -4  150.44    8.71
   3 -13  -4  163.65    8.67
   3  13  -4  152.67    9.03
   3 -13  -4  160.91    8.46
   3 -13  -4  166.50    8.27
   3 -13  -4  174.28    8.53
   3 -13  -4  161.92    8.47
   2 -17   4   88.55    4.77
   2 -17   4   78.02    4.33
  -2 -17  -4   82.04    4.38
   2 -17   4   70.98    4.54
  -2 -17  -4   81.58    4.39
   2 -17   4   62.60    4.06
   2 -17   4   67.84    4.02
   1 -17  -6   16.54    1.97
   1 -17  -6   10.56    1.42
   1  17  -6   14.39    1.93
  -1 -17   6   14.22    1.84
   1 -17  -6   14.10    1.75
  -1 -17   6   10.84    1.68
   1 -17  -6   12.07    1.37
   1 -17  -6   12.37    1.92
   1 -17  -6   15.20    2.64
   0   0 -10  351.40   17.86
   0   0  10  368.28   17.69
   0   0 -10  379.04   17.67
   0   0 -10  342.64   17.62
   0   0 -10  358.10   17.70
  -1 -21   2    0.72    1.67
  -1 -21   2    2.22    1.51
   1 -21  -2    0.78    1.29
   1 -21  -2    1.96    1.81
   1 -21  -2    1.53    1.74
   1 -21  -2    1.41    1.76
   1 -21  -2   -0.04    1.17
   1 -21  -2    0.31    1.14
   4  -3  -3    9.34    2.52
   4  -3  -3   10.89    2.16
   4   3  -3   10.17    2.21
   4  -3  -3    8.13    1.89
   4   3  -3    6.65    1.61
   4  -3  -3    6.79    1.18
   4   3  -3    8.34    1.67
   4   3  -3   10.95    2.70
   4  -3  -3    7.76    2.99
   4  -3  -3    9.30    2.59
   4   3  -3    5.34    1.42
   4   3  -3   12.81    2.29
   4   3  -3    8.60    1.89
   4  -3  -3    6.76    1.53
   4  -3  -3    9.43    2.44
   4  -3  -3    7.21    1.45
   4  -3  -3    7.61    2.72
   3 -10   5  108.10    5.90
   3 -10   5  123.90    6.11
   3 -10   5  132.84    6.60
  -3 -10  -5   99.18    6.00
   3  10   5  123.98    6.70
   3 -10   5  128.43    6.32
   3  10   5  101.55    6.01
   3  10   5  113.01    6.06
   3 -10   5  122.83    6.13
   3  10   5  125.65    6.24
  -3 -10  -5  101.93    5.95
   2   7   8   43.43    3.19
   2  -7   8   44.59    2.60
  -2  -7  -8   37.24    2.56
  -2  -7  -8   38.08    2.53
   2  -7   8   41.13    2.58
  -2   7  -8   40.99    2.59
  -2   7  -8   36.73    2.55
   0   1 -10  134.25    7.17
   0   1 -10  127.12    7.08
   0  -1 -10  127.71    7.25
   0   1  10  138.35    7.12
   0  -1 -10  142.82    7.08
   0   1 -10  134.82    7.08
   0  -1 -10  130.16    7.19
   0   1 -10  152.71    7.39
   0  -1  10  140.08    7.13
   0  -1 -10  137.88    7.07
   0  -1 -10  155.77    7.45
   2 -19  -2    0.81    1.96
   2 -19  -2   -1.79    1.81
   2 -19  -2    1.61    1.96
  -2 -19   2    0.29    1.47
   2  19  -2   -0.84    2.31
   2 -19  -2   -1.39    1.89
   2 -19  -2    1.35    1.68
   2  19  -2    0.75    1.46
  -2 -19   2   -0.03    1.48
   2  19  -2    0.14    1.97
   2 -19  -2    0.05    1.37
   2   0  -9    0.79    1.18
   2   0  -9   -1.90    1.89
   2   0  -9   -0.95    2.19
   2   0  -9    0.21    1.90
   2   0  -9   -0.63    1.82
   2   0  -9    0.17    1.12
   2  -9  -8  113.18    6.84
  -2  -9   8  128.18    6.64
   2  -9  -8  133.59    6.88
   2  -9  -8  122.97    6.76
  -2  -9   8  134.19    6.61
   2   9  -8  121.38    7.04
   2  -9  -8  144.95    7.05
   2   9  -8  117.62    6.77
   2   9  -8  132.02    7.22
   2  -9  -8  121.67    7.08
   2  -9  -8  126.10    7.12
   2   9  -8  129.93    6.62
   4   4   2    3.36    1.22
   4  -4   2    2.61    1.41
   4  -4   2    2.24    1.34
   4  -4   2    1.60    1.82
   4   4   2    2.30    1.84
   4   4   2    2.71    1.66
   4   4   2    1.53    2.17
   4  -4   2    2.30    1.12
   4   4   2    0.70    1.32
   4  -4   2    3.81    1.90
   4  -4   2    4.10    2.18
   4   4   2    1.50    1.30
   4   4   2    2.55    1.42
   4  -4   2    3.94    2.38
   4   4   2    3.85    1.88
   0 -22   1    1.56    1.46
   0 -22  -1    1.90    1.47
   0 -22  -1    1.19    1.76
   0 -22   1    1.06    1.40
   0 -22  -1    1.37    1.52
   0 -22   1   -0.22    1.49
   0 -22   1    2.39    2.00
   0 -22  -1    0.86    1.37
   2  -1  -9    2.82    1.25
   2   1  -9    4.39    1.19
   2  -1  -9    2.85    1.99
   2  -1  -9    5.52    2.27
   2   1  -9    4.67    2.33
   2  -1  -9    7.00    2.01
   2   1  -9    4.63    1.28
   2   1  -9    4.26    1.91
   2   1  -9    6.04    1.94
   2  -1  -9    7.04    2.00
   2  -1  -9    3.90    1.34
   2   1  -9    6.23    1.94
   3  15  -2    0.15    1.73
   3 -15  -2   -1.41    2.46
   3  15  -2    3.41    2.55
   3 -15  -2    0.21    1.92
   3  15  -2    0.65    2.17
  -3 -15   2    1.15    1.23
   3 -15  -2    1.68    1.86
  -3 -15   2    1.64    1.30
   3  15  -2    2.96    1.97
   3  15  -2    1.42    1.25
   3 -15  -2    1.72    1.35
   3 -15  -2    1.22    1.56
   3 -15  -2    1.55    1.67
   3   9  -6    0.46    1.63
   3  -9  -6    1.09    1.67
   3   9  -6    0.32    2.02
   3  -9  -6    2.03    2.53
   3  -9  -6    0.90    1.20
   3   9  -6   -2.54    2.15
   3  -9  -6    0.88    1.80
   3  -9  -6    0.80    2.43
   3  -9  -6    1.55    1.39
   3  -9  -6    0.86    2.17
   3  -9  -6    3.36    1.79
   4   6   1   60.92    3.70
   4   6   1   60.02    3.78
   4  -6   1   70.32    4.34
   4   6   1   59.63    3.44
   4  -6   1   61.80    3.59
   4   6   1   66.96    3.92
   4  -6   1   59.76    4.32
   4  -6   1   49.78    3.52
   4  -6   1   68.17    3.90
   4   6   1   58.81    3.83
   4   6   1   62.82    4.44
   4  -6   1   58.38    3.34
   4  -6   1   63.65    3.83
   4   6   1   56.29    3.65
   4  -6   1   60.86    3.62
   1 -21   2   32.15    2.24
   1 -21   2   29.84    2.43
   1 -21   2   27.03    2.91
  -1 -21  -2   33.88    2.51
   1 -21   2   28.08    2.26
  -1 -21  -2   32.73    2.59
   0  -2  10   85.55    4.41
   0   2 -10   72.86    4.40
   0   2  10   79.27    4.38
   0   2 -10   78.45    4.35
   0  -2 -10   80.95    4.84
   0  -2 -10   79.79    4.81
   0   2 -10   79.39    4.34
   0  -2 -10   74.56    4.49
   0  -2 -10   71.66    4.52
   0  -2 -10   75.91    4.30
   0   2 -10   78.53    4.60
   0  -2 -10   78.10    4.33
   1 -12   8    0.41    1.31
  -1  12  -8    1.73    1.48
  -1 -12  -8    1.59    1.31
   1 -12   8    0.02    1.34
  -1 -12  -8    0.18    1.35
   3   7   6   26.58    2.05
   3  -7   6   17.19    2.66
   3  -7   6   24.79    1.87
   3  -7   6   24.99    2.08
  -3  -7  -6   25.74    1.89
   3  -7   6   21.74    2.30
   3   7   6   17.44    2.38
   3   7   6   20.17    2.03
   3   7   6   18.24    2.48
  -3  -7  -6   22.00    1.92
   3  -7   6   24.51    2.37
   2   2  -9   25.69    2.00
   2   2  -9   26.04    2.07
   2  -2  -9   30.63    2.82
   2   2  -9   29.84    2.68
   2  -2  -9   31.78    2.74
   2  -2  -9   29.68    2.95
   2  -2  -9   32.64    2.21
   2   2  -9   30.27    2.61
   2   2  -9   26.38    3.01
   2  -2  -9   24.91    2.19
   2  -2  -9   37.11    2.80
   4   6  -2    1.80    2.03
   4  -6  -2    1.67    2.24
   4   6  -2    2.11    1.61
   4  -6  -2    0.98    2.94
   4  -6  -2   -2.55    2.23
   4  -6  -2    1.17    1.19
   4  -6  -2    1.36    1.84
   4   6  -2    1.73    1.78
   4  -6  -2    0.40    1.74
   4   6  -2    0.96    1.30
   4  -6  -2    1.84    2.85
   4  -6  -2    0.10    2.55
   4   6  -2   -0.14    2.15
   4  -6  -2    1.12    1.40
   4  -6  -2   -2.94    2.42
   4  -4  -3    9.26    2.60
   4   4  -3   14.19    1.86
   4   4  -3   13.74    2.30
   4  -4  -3   10.74    1.24
   4  -4  -3   13.60    3.16
   4   4  -3   10.80    2.34
   4  -4  -3   14.45    2.19
   4   4  -3   14.26    2.00
   4  -4  -3   15.52    2.98
   4   4  -3   10.83    1.61
   4  -4  -3   13.27    2.04
   4   4  -3   12.61    2.77
   4  -4  -3   10.27    2.51
   4  -4  -3   12.14    2.01
   4  -4  -3   13.26    1.58
   4  -4  -3   12.09    1.63
   4  -4  -3   11.36    2.65
   3  -5  -7   -0.79    1.39
   3  -5  -7    0.03    2.37
   3  -5  -7    0.36    1.72
   3   5  -7    0.92    1.87
   3  -5  -7   -0.15    1.65
   3   5  -7    0.05    2.03
   3  -5  -7    0.43    2.14
   3  -5  -7   -0.64    2.27
   3   5  -7   -0.14    1.55
   3   5  -7    0.14    2.25
   3  -5  -7   -0.44    1.04
   3   5  -7   -1.77    1.68
   3   5  -7   -0.33    1.11
   2  14   6   12.45    2.04
   2 -14   6    8.36    1.32
  -2 -14  -6    6.85    1.53
   2 -14   6   10.72    1.50
   2  14   6    7.10    1.21
   2 -14   6    7.89    1.25
  -2  14  -6    8.78    1.41
   2  14   6   11.04    2.46
   2 -14   6    6.99    1.57
  -2 -14  -6    7.85    1.59
   0 -10  -9  100.78    5.22
   0 -10  -9   88.94    5.25
   0 -10   9  102.79    5.38
   0 -10  -9  111.55    5.79
   0  10  -9   98.40    5.37
   0 -10   9   94.72    5.31
   0 -10  -9   91.83    5.20
   1  -9  -9  464.25   24.58
   1  -9  -9  539.60   24.84
   1  -9  -9  498.95   24.83
   1  -9  -9  530.85   24.88
  -1  -9   9  498.75   24.74
   1   9  -9  479.50   24.69
   1  -9  -9  571.02   25.04
   1  -9  -9  522.00   24.59
   1  -9  -9  518.50   24.92
  -1  -9   9  517.73   24.69
   1   9  -9  529.76   25.18
   1   9  -9  483.71   24.66
   4  -7   0    4.97    1.85
   4   7   0    0.41    1.66
   4  -7   0    4.61    2.54
   4   7   0    3.70    2.30
   4   7   0    6.08    1.09
   4  -7   0    7.37    1.73
   4  -7   0    3.94    1.57
   4  -7   0    2.62    2.71
   4   7   0    1.76    1.86
   4   7   0    4.12    1.64
   4   7   0    4.99    1.91
   4   7   0    7.32    1.66
   4  -7   0    6.19    1.41
   4  -7   0    4.05    1.42
   0 -16  -7   -0.25    1.27
   0 -16  -7    0.05    1.32
   0 -16   7    0.18    1.41
   0 -16  -7   -0.16    1.30
   0 -16   7    0.22    1.35
   0 -16  -7   -0.31    1.27
   0 -16  -7    0.53    1.67
   1  -8   9  215.54   10.60
  -1  -8  -9  206.52   10.53
  -1  -8  -9  211.40   10.51
  -1   8  -9  207.93   10.59
   4   7  -1   59.96    3.53
   4   7  -1   46.30    3.56
   4  -7  -1   47.77    4.09
   4   7  -1   54.83    3.42
   4  -7  -1   51.01    3.08
   4  -7  -1   51.49    3.23
   4   7  -1   47.43    3.20
   4  -7  -1   47.85    3.37
   4  -7  -1   39.42    3.90
   4  -7  -1   53.93    3.82
   4  -7  -1   53.31    3.20
   4  -7  -1   47.75    3.62
   4  -7  -1   46.58    3.31
   4   7  -1   52.56    3.86
   4   7  -1   44.93    3.75
   0  -3 -10   26.11    1.94
   0  -3 -10   28.71    2.58
   0   3 -10   23.29    2.01
   0  -3 -10   20.87    2.27
   0   3 -10   27.51    2.34
   0  -3  10   25.44    2.10
   0   3 -10   22.56    2.11
   0  -3 -10   22.33    2.17
   0  -3 -10   26.17    2.71
   0  -3 -10   26.91    1.98
   0   3 -10   22.93    2.02
  -2 -19  -2   30.53    2.47
   2 -19   2   28.97    2.78
  -2 -19  -2   30.42    2.48
   2 -19   2   28.43    2.65
   2 -19   2   31.07    2.54
   2   3  -9    6.08    1.24
   2  -3  -9    3.98    2.04
   2   3  -9    2.86    1.90
   2   3  -9    6.14    1.96
   2  -3  -9    7.34    2.12
   2   3  -9    3.64    2.33
   2  -3  -9    7.62    1.90
   2  -3  -9    6.21    1.44
   2  -3  -9    6.80    2.17
   2  -3  -9   10.68    2.04
   4  -5   2   12.66    2.57
   4  -5   2   20.11    2.17
   4   5   2   12.67    1.73
   4   5   2   15.68    1.71
   4  -5   2   17.60    2.52
   4   5   2   12.81    2.07
   4  -5   2   16.25    1.47
   4  -5   2   13.61    2.13
   4   5   2   12.18    1.50
   4  -5   2   17.44    1.71
   4   5   2   12.98    2.00
   4   5   2   15.79    2.54
   4   5   2   12.50    1.79
   4  -5   2   12.92    1.68
   4   5   2   11.74    1.92
   1 -17   6   26.17    2.54
   1 -17   6   24.88    2.09
  -1 -17  -6   26.77    2.21
  -1 -17  -6   21.43    1.77
  -1 -17  -6   25.46    2.17
   1 -17   6   24.08    2.04
  -1 -15  -7   17.24    1.65
  -1 -15  -7   20.17    1.93
  -1  15  -7   20.69    1.97
   1 -15   7   12.81    2.04
   1 -15   7   13.74    1.83
   1 -15   7   18.26    1.83
  -1 -15  -7   16.41    1.89
   2 -16   5    1.41    1.05
   2 -16   5    1.99    1.66
  -2 -16  -5    1.80    1.40
   2  16   5    1.95    1.72
   2 -16   5    0.89    1.11
  -2 -16  -5    2.79    1.50
   2 -16   5    0.49    2.25
   2 -16   5    2.64    1.39
  -2  16  -5    0.95    1.15
  -3 -14  -3   49.40    2.98
   3 -14   3   31.40    2.91
  -3 -14  -3   51.23    2.97
   3 -14   3   46.54    2.75
   3 -14   3   48.27    3.21
   3 -14   3   47.39    3.14
   3 -14   3   38.59    3.04
   3  14   3   34.49    3.77
   3 -14   3   46.35    3.56
   3  14   3   49.81    2.88
   3  14   3   44.83    3.02
   0 -18  -6    4.99    1.35
   0 -18  -6    4.27    1.42
   0 -18   6    5.67    1.56
   0 -18   6    4.76    1.48
   0 -18  -6    3.34    1.57
   0 -18  -6    5.48    1.43
   0 -18  -6    7.19    1.46
   2 -15  -6    4.74    1.87
   2  15  -6    5.03    1.44
   2 -15  -6    7.01    1.66
   2 -15  -6    0.03    1.61
   2 -15  -6    3.96    2.30
   2 -15  -6    5.63    1.21
   2 -15  -6    2.69    1.51
  -2 -15   6    4.60    1.43
  -2 -15   6    4.27    1.38
   2  15  -6    4.60    2.40
   2 -15  -6    5.64    1.92
   2 -15  -6    4.75    1.43
   2  15  -6    5.75    1.78
   1 -13  -8    7.34    1.76
   1 -13  -8   10.76    1.82
   1 -13  -8    9.55    1.34
  -1 -13   8   11.72    1.68
  -1 -13   8   11.41    1.71
   1 -13  -8    9.64    2.32
   1  13  -8   10.84    2.40
   1 -13  -8   10.90    1.32
   1 -13  -8    7.78    1.73
   1 -13  -8    8.59    2.10
   4   0   3    1.89    1.28
   4   0   3    3.10    1.89
   4   0   3    2.44    1.40
   4   0   3    5.53    2.07
   4   0   3    2.95    2.06
   4   0   3    0.24    1.30
   3 -15   2   18.61    2.64
   3 -15   2   16.16    1.98
   3  15   2   16.66    1.60
   3 -15   2   14.70    2.09
   3 -15   2   10.32    1.82
   3  15   2   15.23    1.96
   3  15   2    9.52    2.75
  -3 -15  -2   17.47    1.75
   3 -15   2   16.72    1.96
  -3 -15  -2   15.78    1.72
   4   1   3   70.79    3.97
   4  -1   3   69.89    3.95
   4   1   3   67.32    3.96
   4   1   3   71.61    4.24
   4  -1   3   71.52    4.32
   4   1   3   75.11    4.31
   4  -1   3   53.10    4.18
   4  -1   3   72.43    4.26
   4   1   3   82.89    4.54
   4   1   3   68.50    4.22
   4  -1   3   80.85    4.48
   4  -1   3   70.74    3.98
   4  -1   3   62.64    3.92
   4   1   3   60.63    3.97
   3  12  -5  101.01    5.46
   3 -12  -5   95.76    5.53
   3 -12  -5   84.88    5.18
   3  12  -5   90.93    5.53
   3  12  -5   95.62    5.91
   3 -12  -5  108.57    5.58
   3 -12  -5   95.63    5.64
   3 -12  -5   95.97    5.27
   3 -12  -5  103.06    5.28
   3 -12  -5   90.15    5.79
   3 -12  -5   93.33    5.68
  -1 -20   4   79.50    4.48
   1 -20  -4   82.01    4.66
   1 -20  -4   75.88    4.15
   1 -20  -4   75.42    4.40
  -1 -20   4   76.69    4.46
   1 -20  -4   83.50    4.38
   2   8   8   83.01    5.28
   2  -8   8   98.24    4.94
  -2   8  -8  106.25    5.02
   2  -8   8   97.80    4.94
  -2  -8  -8   94.43    4.94
  -2   8  -8   85.48    4.91
  -2  -8  -8   89.01    4.94
   0   4 -10    2.80    1.55
   0   4 -10    3.56    1.42
   0  -4 -10    2.90    1.61
   0  -4 -10    2.31    2.04
   0   4 -10    4.06    1.44
   0  -4 -10    3.00    1.22
   0  -4  10    3.84    1.44
   0  -4 -10    3.98    1.27
   0   4 -10    2.41    1.35
   0  -4 -10    4.40    1.86
   0  -4 -10    3.08    1.42
   4  -5  -3   18.48    3.11
   4   5  -3    9.48    1.60
   4  -5  -3   19.51    2.60
   4   5  -3   14.84    2.76
   4   5  -3   13.13    2.01
   4   5  -3   18.24    2.51
   4   5  -3   11.93    1.88
   4  -5  -3   17.35    3.01
   4  -5  -3   11.38    2.64
   4  -5  -3   16.06    2.42
   4  -5  -3   13.21    2.07
   4  -5  -3   13.11    2.07
   4  -5  -3    8.02    1.25
   4  -5  -3   10.12    1.53
   4  -5  -3   15.41    2.67
   4   5  -3   19.13    2.46
   4  -7   1    4.65    1.82
   4   7   1    5.41    2.41
   4  -7   1    4.80    1.88
   4   7   1    3.85    1.66
   4   7   1    6.93    1.81
   4   7   1    5.18    1.68
   4  -7   1    4.95    2.63
   4  -7   1    3.28    1.44
   4  -7   1    6.79    2.46
   4   7   1    6.37    1.89
   4   7   1    4.10    1.46
   4   7   1    3.43    1.11
   4  -7   1    6.06    1.39
   4  -7   1    3.21    1.45
   0 -22  -2   39.14    2.96
   0 -22   2   41.28    2.95
   0 -22  -2   41.69    2.91
   0 -22   2   41.25    2.80
   0 -22   2   43.00    3.42
   0 -22   2   45.63    3.03
   0 -22  -2   48.73    2.93
   0 -22  -2   43.32    2.59
   2   4  -9  109.35    6.18
   2  -4  -9  118.84    6.27
   2  -4  -9  114.56    5.99
   2  -4  -9  123.94    6.47
   2  -4  -9  132.72    6.42
   2   4  -9   96.53    5.82
   2   4  -9  111.27    6.13
   2  -4  -9  117.06    6.36
   2   4  -9  109.05    6.50
   2  -4  -9  111.92    6.25
   4   2   3   17.03    2.22
   4   2   3   15.00    2.23
   4  -2   3   11.18    2.40
   4   2   3   12.95    2.08
   4   2   3   15.01    2.50
   4  -2   3   11.92    2.30
   4  -2   3   20.04    2.30
   4  -2   3   18.61    1.79
   4   2   3   15.20    1.69
   4  -2   3   18.69    1.75
   4   2   3   15.28    1.88
   4  -2   3   18.40    1.81
   4  -2   3   18.24    2.33
   4   2   3   16.42    1.76
   3   6  -7   11.11    2.22
   3  -6  -7   11.93    2.54
   3   6  -7    9.89    2.19
   3   6  -7   10.67    1.86
   3  -6  -7    7.97    1.60
   3   6  -7    7.58    1.25
   3  -6  -7    9.17    1.33
   3   6  -7    8.64    2.39
   3  -6  -7    9.13    1.95
   3  -6  -7   11.85    1.95
   3   6  -7   12.45    1.93
   3  -6  -7   12.11    2.51
   3  -6  -7   11.14    2.59
  -1   0  10    0.10    1.25
   1   0 -10    0.99    1.15
   1   0 -10    2.22    2.14
   1   0 -10    0.48    1.77
   1   0 -10   -1.11    1.76
   1   0 -10   -1.43    1.86
   1   0 -10   -0.60    1.11
   2 -13  -7    9.42    2.12
   2 -13  -7    8.51    1.45
  -2 -13   7    9.94    1.53
  -2 -13   7   10.27    1.53
   2 -13  -7   11.77    1.71
   2 -13  -7    9.24    2.01
   2  13  -7    9.95    2.39
   2 -13  -7   10.53    1.68
   2 -13  -7    8.31    1.59
   2  13  -7   11.52    2.12
   2 -13  -7    9.20    1.76
   2  13  -7   10.90    1.65
   2 -13  -7   11.08    2.47
  -2 -18   4  113.70    6.22
   2 -18  -4  114.50    6.73
   2 -18  -4  115.68    6.41
   2 -18  -4  118.89    6.52
  -2 -18   4  114.83    6.22
   2  18  -4  114.68    6.18
   2 -18  -4  108.11    6.37
   2 -18  -4  130.69    6.34
   2  18  -4  110.16    6.82
   1  -1 -10    3.69    1.92
  -1  -1  10    6.41    1.38
   1   1 -10    2.20    2.23
   1   1 -10    2.67    1.88
   1  -1 -10    3.85    2.07
  -1   1  10    4.80    1.32
   1   1 -10    4.92    1.82
   1   1 -10    7.90    1.30
   1   1 -10    4.11    1.27
   1  -1 -10    3.77    1.92
   1  -1 -10    6.03    1.19
   1  -1 -10    4.24    1.83
   1  -1 -10    6.55    1.22
  -1 -19   5    5.48    1.58
   1 -19  -5    7.31    1.81
   1 -19  -5    5.41    1.18
   1 -19  -5    4.90    1.21
   1 -19  -5    5.22    1.50
   1 -19  -5    7.32    1.51
  -1 -19   5    5.83    1.63
   4  -7  -2    1.64    2.14
   4  -7  -2    1.55    1.71
   4  -7  -2    1.93    2.54
   4  -7  -2    3.29    2.77
   4   7  -2   -1.68    1.71
   4   7  -2    0.80    2.54
   4  -7  -2   -1.44    2.29
   4   7  -2    0.62    2.20
   4  -7  -2    1.35    1.20
   4   7  -2    0.02    1.35
   4  -7  -2    1.81    2.28
   4   7  -2   -0.17    2.08
   4  -7  -2    1.35    1.82
   4   7  -2    2.02    1.86
   4  -7  -2    0.69    1.26
   4  -7  -2    3.86    2.92
   3 -16   0   95.95    5.67
   3 -16   0   87.07    5.50
   3 -16   0   93.76    5.73
   3  16   0   80.57    6.08
   3  16   0  106.91    5.33
  -3 -16   0  104.55    5.47
   3 -16   0  105.68    5.66
   3  16   0  100.14    5.69
  -3 -16   0  113.36    5.48
   3 -16   0  106.48    6.02
   3 -16   0   95.53    5.43
   3  16   0   85.31    5.64
   3 -16   0  109.58    5.58
   3  -8   6   14.69    1.78
   3  -8   6   16.15    2.56
   3  -8   6   14.26    1.44
   3   8   6   11.78    1.72
   3   8   6   16.82    2.22
  -3  -8  -6   11.64    1.57
   3  -8   6   16.43    2.04
   3  -8   6   15.00    2.12
   3   8   6   15.11    2.27
   3   8   6   13.50    1.66
  -3  -8  -6   11.67    1.50
   3  -8   6   11.98    1.43
   2  12   7   72.46    3.93
  -2  12  -7   66.09    3.54
   2 -12   7   62.01    3.47
  -2 -12  -7   52.15    3.59
   2  12   7   54.51    3.92
   2  12   7   54.41    3.40
   2 -12   7   56.27    3.41
   2 -12   7   59.06    3.49
  -2 -12  -7   64.34    3.60
   2 -10  -8   50.25    3.27
   2  10  -8   49.96    3.57
   2 -10  -8   50.39    3.46
   2 -10  -8   49.70    3.55
   2  10  -8   44.26    2.76
  -2 -10   8   41.30    2.79
   2 -10  -8   39.18    3.11
  -2 -10   8   39.00    2.72
   2 -10  -8   38.95    2.90
   2  10  -8   40.79    2.95
   2  10  -8   45.48    3.41
   0 -14  -8   73.88    4.10
   0 -14  -8   79.35    4.04
   0 -14  -8   59.65    3.95
   0 -14  -8   65.90    4.39
   0 -14  -8   59.43    3.96
   0 -14   8   77.50    4.14
   0 -14   8   71.59    4.10
   3 -11   5   11.68    2.01
   3  11   5   10.63    1.61
  -3 -11  -5   10.69    1.54
   3 -11   5   11.42    1.33
   3  11   5   12.57    2.08
   3 -11   5   11.10    1.71
  -3 -11  -5   11.00    1.56
   3  11   5   13.00    1.62
   3 -11   5   15.37    2.52
   3 -11   5    8.33    1.79
   3  11   5   11.44    2.38
   4   0  -4   55.77    3.84
   4   0  -4   45.28    3.08
   4   0  -4   38.55    2.86
   4   0  -4   51.45    4.06
   4   0  -4   38.81    3.05
   4   0  -4   56.78    3.67
   4   0  -4   46.08    3.12
   4   0  -4   56.13    3.61
   3 -10  -6   84.63    4.87
   3  10  -6   81.23    4.97
   3 -10  -6   94.10    4.91
   3 -10  -6   77.82    4.57
   3 -10  -6   90.71    5.27
   3  10  -6   78.70    4.73
   3  10  -6   85.90    5.20
   3 -10  -6   90.88    5.20
   3 -10  -6   84.99    5.10
   3 -10  -6   72.95    4.49
   3 -10  -6   73.07    4.58
   4  -6   2    0.67    1.27
   4  -6   2   -0.27    1.83
   4   6   2    0.39    1.78
   4   6   2   -1.31    2.22
   4   6   2    0.26    1.75
   4  -6   2    0.02    1.36
   4   6   2    0.83    1.58
   4   6   2   -0.62    1.50
   4  -6   2    0.70    1.74
   4   6   2   -0.43    1.29
   4  -6   2   -0.26    2.22
   4   6   2    0.02    1.11
   4   6   2    0.14    1.39
   4  -6   2    0.03    2.43
   4  -6   2    0.43    0.94
   3  16  -1    7.76    1.32
   3  16  -1    9.41    2.36
   3  16  -1    9.80    2.01
   3 -16  -1   12.73    2.69
   3 -16  -1    9.10    1.99
   3  16  -1    6.69    2.48
   3 -16  -1    8.95    1.81
   3 -16  -1    9.32    1.90
   3 -16  -1   11.64    2.17
  -3 -16   1    7.75    1.41
   3  16  -1    7.66    2.04
  -3 -16   1    7.81    1.51
   3 -16  -1    8.21    1.64
   1  -2 -10   68.15    4.32
   1   2 -10   63.56    4.13
   1  -2 -10   66.69    4.20
   1   2 -10   75.91    4.63
   1  -2 -10   77.38    4.29
   1  -2 -10   74.36    3.79
   1   2 -10   63.95    3.81
   1   2 -10   62.50    4.14
   1  -2 -10   68.65    3.76
   1   2 -10   69.78    3.83
  -1  -2  10   58.51    3.85
   1  -2 -10   72.03    4.39
   4  -1  -4   73.95    4.67
   4   1  -4   79.40    4.59
   4   1  -4   70.94    4.63
   4   1  -4   71.37    4.90
   4  -1  -4   79.49    5.01
   4  -1  -4   75.94    4.63
   4  -1  -4   75.42    4.12
   4   1  -4   68.91    4.11
   4  -1  -4   60.88    4.00
   4  -1  -4   65.24    3.88
   4   1  -4   57.81    3.89
   4  -1  -4   69.19    4.13
   4  -1  -4   78.57    4.52
   4   1  -4   74.22    4.14
   4   1  -4   70.50    4.55
   3 -13   4   65.64    5.38
   3  13   4   77.74    5.42
   3  13   4   79.17    6.03
   3 -13   4   93.06    5.58
  -3 -13  -4   89.08    5.43
   3 -13   4   90.17    5.68
   3 -13   4   99.73    5.93
   3  13   4   82.31    5.41
   3 -13   4   88.01    5.31
  -3 -13  -4   83.75    5.47
   3  13   4   87.73    5.54
  -3   0  -7   13.98    1.42
   3   0   7   15.23    2.32
   3   0   7   13.14    1.94
   3   0   7   14.29    1.99
   3   0   7   15.26    1.86
  -3   0  -7   12.56    1.37
   4   8   0   62.34    3.90
   4   8   0   64.21    3.84
   4  -8   0   53.40    4.26
   4   8   0   58.45    3.64
   4  -8   0   51.64    4.32
   4   8   0   53.70    3.82
   4  -8   0   60.64    3.70
   4  -8   0   66.27    3.62
   4   8   0   58.42    4.34
   4   8   0   67.08    3.34
   4  -8   0   58.05    3.62
   4  -8   0   62.05    3.79
   4  -8   0   46.16    3.57
   1 -20   4  103.48    5.46
   1 -20   4   89.22    4.98
   1 -20   4   87.84    5.10
   1 -20   4   92.07    4.95
   1 -20   4   91.94    4.96
  -1 -20  -4   89.96    5.13
  -1 -20  -4   86.82    5.12
   4  -3   3   -1.12    1.92
   4   3   3   -1.06    2.10
   4   3   3    0.13    1.25
   4   3   3   -1.48    1.44
   4  -3   3    0.33    2.15
   4   3   3    0.28    1.70
   4  -3   3   -1.89    1.93
   4  -3   3   -0.64    1.21
   4  -3   3    0.72    2.06
   4   3   3    0.13    1.92
   4   3   3   -1.76    1.78
   4  -3   3    0.89    1.42
   4   3   3   -0.44    1.36
   4   3   3   -0.19    1.26
   4  -3   3   -0.37    1.28
  -1 -21   3   38.77    2.92
  -1 -21   3   40.40    2.86
   1 -21  -3   41.05    3.07
   1 -21  -3   35.29    2.49
   1 -21  -3   48.16    3.18
   1 -21  -3   41.95    2.69
   1 -21  -3   37.67    2.92
   1 -21  -3   32.08    2.46
   3  -1   7   72.68    4.76
  -3  -1  -7   88.35    4.48
   3  -1   7   87.06    4.70
   3   1   7   82.46    4.92
  -3  -1  -7   87.56    4.52
  -3   1  -7   91.96    4.47
   3   1   7   88.74    4.74
  -3   1  -7   92.00    4.50
   3  -1   7   63.19    4.71
   3  -1   7   83.58    4.91
   3   1   7   67.69    4.68
   4   8  -1   44.90    3.25
   4   8  -1   40.47    3.39
   4  -8  -1   33.44    3.74
   4  -8  -1   41.54    2.78
   4  -8  -1   43.12    3.25
   4   8  -1   44.95    3.09
   4   8  -1   39.73    3.51
   4   8  -1   44.93    2.85
   4   8  -1   45.60    3.16
   4  -8  -1   41.07    2.97
   4  -8  -1   41.69    3.05
   4  -8  -1   38.71    3.70
   4  -8  -1   29.89    2.74
   2 -19  -3   91.54    5.18
  -2 -19   3   80.59    4.81
   2  19  -3   71.94    5.11
  -2 -19   3   83.53    4.83
   2 -19  -3   95.78    5.05
   2 -19  -3   83.38    4.94
   2 -19  -3   82.95    5.26
   2  19  -3   85.54    4.77
   2 -19  -3   70.57    4.81
   2 -19  -3   89.35    4.84
   2  19  -3   85.72    5.42
   3 -15  -3   14.34    2.17
   3 -15  -3   13.60    1.69
   3  15  -3   10.86    2.84
   3  15  -3   13.25    1.98
   3 -15  -3   11.80    1.83
   3 -15  -3   12.76    2.69
   3  15  -3   13.58    1.62
   3 -15  -3   12.14    1.27
   3  15  -3    9.01    2.22
  -3 -15   3   10.43    1.43
   3 -15  -3   13.45    1.98
   3 -15  -3   11.89    2.15
   3 -15  -3   10.89    2.29
   3  15  -3   10.79    2.36
  -3 -15   3   11.19    1.48
   2 -20   0   81.91    4.15
  -2 -20   0   72.59    4.17
  -2 -20   0   66.51    4.17
   2 -20   0   66.54    4.27
  -2 -20   0   61.04    4.10
   2 -20   0   77.19    4.52
   2 -20   0   72.95    4.52
   2 -20   0   58.36    4.28
   2  20   0   64.11    4.27
   2 -20   0   62.60    4.18
   0   5 -10   -2.21    1.40
   0  -5 -10   -1.25    1.64
   0  -5 -10   -0.16    1.17
   0  -5  10   -0.02    1.38
   0  -5 -10   -0.45    1.58
   0  -5 -10    0.03    1.32
   0  -5 -10   -0.60    1.16
   0  -5 -10    0.03    2.03
   1  -9   9   -0.11    1.40
  -1  -9  -9    1.07    1.31
  -1  -9  -9    1.09    1.24
  -1   9  -9    1.39    1.39
   4  -2  -4   26.07    2.64
   4  -2  -4   32.86    2.42
   4  -2  -4   20.99    2.03
   4   2  -4   19.96    2.19
   4  -2  -4   32.33    2.95
   4  -2  -4   26.17    3.41
   4  -2  -4   22.82    1.82
   4   2  -4   20.70    2.13
   4   2  -4   21.82    2.83
   4  -2  -4   24.66    2.14
   4   2  -4   24.64    3.18
   4  -2  -4   32.66    3.07
   4   2  -4   15.98    2.66
   4   2  -4   17.32    1.88
   4   2  -4   22.48    2.68
  -1 -22   0   11.26    2.02
  -1 -22   0   11.49    1.79
   1 -22   0   11.16    1.52
   1 -22   0   12.34    1.93
  -1 -22   0   10.74    1.88
   1 -22   0   14.27    2.28
   1 -22   0   11.34    1.48
   1 -22   0   14.30    1.55
   2 -17  -5    1.24    1.00
  -2 -17   5    2.31    1.48
   2 -17  -5    1.88    1.72
   2 -17  -5    0.08    1.45
   2 -17  -5    2.80    1.89
   2 -17  -5    2.60    2.28
   2  17  -5    0.90    2.44
   2 -17  -5    1.76    1.64
   2  17  -5    1.15    1.34
   2 -17  -5    1.92    1.67
  -2 -17   5    1.78    1.33
   3 -14  -4   29.21    2.67
   3  14  -4   30.16    3.06
   3  14  -4   31.30    2.25
   3 -14  -4   32.29    2.74
   3 -14  -4   24.06    1.97
   3  14  -4   30.31    2.47
   3  14  -4   22.78    3.53
   3  14  -4   22.64    2.44
   3 -14  -4   27.63    2.24
   3 -14  -4   31.07    3.11
   3 -14  -4   28.33    2.92
   3 -14  -4   30.45    2.61
  -3  -2  -7    2.19    1.17
   3  -2   7    1.26    1.47
   3  -2   7   -0.42    1.92
   3  -2   7    0.98    1.67
   3   2   7    1.66    1.63
   3   2   7    1.56    1.63
   3   2   7    1.72    2.14
  -3   2  -7    1.18    1.06
  -3  -2  -7    0.29    1.06
   3  -2   7    3.42    2.04
  -3   2  -7    1.76    1.02
   2   5  -9   21.52    1.72
   2  -5  -9   21.24    2.01
   2  -5  -9   19.54    2.65
   2   5  -9   22.70    2.84
   2   5  -9   22.42    2.33
   2  -5  -9   26.65    2.67
   2  -5  -9   25.64    2.51
   2  -5  -9   24.76    2.56
   2  -5  -9   24.68    2.48
   2   5  -9   18.81    1.70
   2   5  -9   20.90    2.32
   1  10  -9   35.46    3.41
  -1 -10   9   35.81    2.51
   1 -10  -9   29.05    2.28
   1 -10  -9   38.94    2.75
  -1 -10   9   36.93    2.61
   1 -10  -9   36.70    2.84
   1 -10  -9   37.14    2.78
   1  10  -9   31.37    2.83
   1  10  -9   36.52    2.55
   1 -10  -9   35.82    2.26
   1 -10  -9   35.11    3.11
   1 -10  -9   35.59    2.96
   4  -6  -3    5.16    2.43
   4  -6  -3    6.28    2.85
   4   6  -3    8.23    2.20
   4  -6  -3    8.97    1.94
   4   6  -3    8.02    1.76
   4  -6  -3    5.15    2.43
   4   6  -3    7.96    1.94
   4  -6  -3    6.38    1.93
   4  -6  -3    5.50    2.21
   4  -6  -3    6.45    3.00
   4   6  -3    5.97    2.44
   4  -6  -3    6.39    2.42
   4   6  -3    4.99    2.16
   4   6  -3    6.70    1.48
   1   3 -10    2.53    2.43
   1  -3 -10    4.07    1.16
   1  -3 -10    4.64    2.06
   1   3 -10    3.91    1.72
   1  -3 -10    2.09    2.02
   1   3 -10    4.24    1.29
   1  -3 -10    4.09    1.13
   1  -3 -10    2.61    1.90
   1   3 -10    5.24    1.92
  -1  -3  10    3.55    1.35
   1  -3 -10    4.72    1.81
   1   3 -10    2.85    1.27
  -3 -16  -1    1.80    1.32
   3  16   1   -1.01    2.43
   3  16   1    0.13    1.11
   3 -16   1    0.38    1.53
   3 -16   1   -0.03    1.58
   3 -16   1    1.45    1.93
   3 -16   1    0.74    2.44
   3  16   1   -0.96    1.69
  -3 -16  -1    1.27    1.33
   3  16   1    0.42    1.45
   3 -16   1    2.17    1.53
   2 -20  -1   66.24    4.12
   2  20  -1   53.47    4.54
   2 -20  -1   63.14    3.96
  -2 -20   1   71.35    3.94
   2 -20  -1   50.03    3.87
   2 -20  -1   65.24    3.80
   2 -20  -1   50.84    4.01
   2  20  -1   62.09    4.14
   2  20  -1   57.37    3.89
   2 -20  -1   70.32    4.21
  -2 -20   1   61.44    3.83
   0 -11   9   77.68    4.53
   0 -11   9   77.38    4.52
   0 -11  -9   72.92    4.40
   0  11  -9   69.61    4.59
   0 -11  -9   79.91    4.71
   0 -11  -9   78.91    4.41
   0 -11  -9   87.84    4.41
  -1 -19  -5    1.07    1.50
  -1 -19  -5    0.03    1.38
   1 -19   5    1.58    1.37
   1 -19   5    0.21    1.29
   1 -19   5    3.43    1.97
   1 -19   5    0.41    1.99
   1 -16  -7   28.76    2.12
   1 -16  -7   34.64    2.66
  -1 -16   7   29.76    2.43
  -1 -16   7   29.06    2.46
   1  16  -7   36.14    2.81
   1 -16  -7   28.45    2.08
   1 -16  -7   35.28    2.73
   1 -16  -7   33.91    2.48
   1 -16  -7   35.11    3.26
   1 -21   3   57.82    3.61
   1 -21   3   57.49    4.11
   1 -21   3   53.20    3.64
  -1 -21  -3   64.30    3.81
   1 -21   3   61.19    3.56
  -1 -22   1    4.78    1.97
  -1 -22   1    6.80    1.83
   1 -22  -1    2.52    1.83
   1 -22  -1    3.67    1.93
   1 -22  -1    5.66    1.36
   1 -22  -1    3.62    1.20
   1 -22  -1    4.91    1.81
   1 -22  -1    5.41    1.29
  -1 -22   1    6.92    1.68
  -1 -13  -8  141.20    6.73
  -1 -13  -8  117.91    6.69
   1 -13   8  125.13    6.68
  -1  13  -8  135.24    6.81
   1 -13   8  119.00    6.69
   4  -4   3   72.85    3.72
   4  -4   3   74.20    4.03
   4   4   3   72.85    4.01
   4  -4   3   62.84    4.16
   4   4   3   62.97    3.75
   4   4   3   59.47    4.24
   4  -4   3   51.63    4.05
   4   4   3   63.81    3.88
   4   4   3   60.95    3.66
   4  -4   3   63.83    3.95
   4  -4   3   62.46    3.54
   4   4   3   46.91    3.70
   4   4   3   53.90    3.63
   4   4   3   50.09    3.66
   4  -4   3   63.35    3.69
   4   3  -4   11.52    1.89
   4   3  -4   10.18    1.59
   4   3  -4    3.12    2.17
   4   3  -4    7.16    2.79
   4  -3  -4   14.43    1.73
   4   3  -4   13.39    1.87
   4   3  -4    8.93    2.50
   4  -3  -4   11.90    1.74
   4  -3  -4    9.65    2.48
   4   3  -4    8.61    2.30
   4  -3  -4   11.45    2.24
   4  -3  -4   13.11    2.00
   4  -3  -4   11.56    2.59
   4  -3  -4    8.04    2.73
   4  -3  -4   12.49    3.08
   3   7  -7   57.92    4.03
   3  -7  -7   69.32    4.11
   3  -7  -7   61.83    3.69
   3  -7  -7   50.39    3.50
   3  -7  -7   48.14    3.15
   3   7  -7   42.34    3.05
   3   7  -7   59.23    3.69
   3   7  -7   60.74    3.91
   3  -7  -7   39.96    3.29
   3   7  -7   61.62    3.62
   3   7  -7   58.33    3.60
   3  -7  -7   61.49    4.08
   3  -7  -7   67.81    4.16
  -1 -22  -1    3.79    1.62
  -1 -22  -1   10.38    1.73
   1 -22   1    7.40    1.33
   1 -22   1    2.20    1.66
   1 -22   1    5.06    1.63
  -1 -22  -1    5.98    1.63
   1 -22   1    6.61    1.39
   1 -22   1    3.49    2.10
   4  -8   1    3.42    1.45
   4   8   1    2.58    1.45
   4   8   1    2.46    1.58
   4  -8   1    1.87    1.45
   4  -8   1    2.92    2.73
   4  -8   1    2.10    2.48
   4   8   1    2.80    1.84
   4  -8   1    1.87    1.70
   4  -8   1    1.90    1.35
   4   8   1    3.03    1.66
   4   8   1    0.24    2.36
   4   8   1    3.40    1.05
   4   8   1    2.05    1.63
   4  -8   1    3.79    1.84
   3   3   7   94.98    6.21
   3  -3   7   97.03    6.37
   3  -3   7  116.76    6.37
  -3   3  -7  131.39    6.05
  -3  -3  -7  117.39    6.09
   3   3   7  122.00    6.31
   3  -3   7  123.71    6.29
  -3   3  -7  128.18    6.07
   3   3   7  114.34    6.45
   3  -3   7  109.45    6.33
  -3  -3  -7  120.61    6.08
   2  20   1   -1.42    1.48
  -2 -20  -1   -0.50    1.49
   2 -20   1    0.30    1.62
   2 -20   1   -1.36    2.07
   2 -20   1   -0.89    2.00
  -2 -20  -1   -0.23    1.55
   0 -21  -4   93.71    4.91
   0 -21  -4   86.40    4.89
   0 -21   4   96.21    5.46
   0 -21   4   88.01    4.96
   0 -21  -4   85.86    4.73
   0 -21  -4   78.28    4.98
   0 -21   4   89.06    4.92
  -2   9  -8    8.16    1.45
  -2  -9  -8    6.15    1.35
   2  -9   8    5.62    0.96
   2  -9   8    6.34    1.36
  -2   9  -8    6.84    1.38
   2   9   8    8.10    2.25
  -2  -9  -8    6.74    1.47
   2  -9   8    5.56    1.36
   3  16  -2   -2.28    2.01
   3 -16  -2   -1.21    1.70
   3 -16  -2    1.93    1.97
  -3 -16   2   -0.02    1.26
   3 -16  -2    0.05    1.61
   3  16  -2    0.57    2.17
   3 -16  -2    3.47    2.63
  -3 -16   2   -0.02    1.28
   3  16  -2    1.06    1.17
   3 -16  -2    0.84    1.87
   3  16  -2    1.44    1.73
   3 -16  -2    0.03    1.36
   3  16  -2   -1.04    2.36
   1  -4 -10   18.70    2.20
  -1  -4  10   17.77    1.83
   1   4 -10   19.31    2.18
   1  -4 -10   20.97    2.47
   1  -4 -10   20.85    1.60
   1  -4 -10   18.37    2.30
   1   4 -10   20.61    2.07
   1  -4 -10   18.65    1.59
   1   4 -10   16.96    1.73
   1  -4 -10   22.51    2.39
   1   4 -10   17.23    1.76
   1   4 -10   23.46    2.85
   2 -18   4  128.33    6.52
   2 -18   4  114.00    6.26
  -2 -18  -4  140.89    6.61
   2 -18   4  125.59    6.77
   2 -18   4  115.60    6.67
   2 -18   4  105.65    6.26
  -2 -18  -4  129.87    6.62
   4   8  -2  127.23    6.42
   4   8  -2  132.80    6.68
   4  -8  -2  120.25    6.76
   4   8  -2  115.35    6.83
   4  -8  -2  118.81    6.91
   4  -8  -2  114.56    6.28
   4   8  -2  109.14    6.71
   4  -8  -2  107.79    6.46
   4  -8  -2  130.17    6.61
   4  -8  -2  107.85    6.99
   4   8  -2  122.61    6.80
   4   8  -2  132.84    6.66
   4  -8  -2  121.42    6.81
  -1 -18   6   18.46    1.90
   1 -18  -6   17.24    1.92
   1 -18  -6   17.85    2.12
  -1 -18   6   17.64    1.98
   1 -18  -6   16.10    1.55
   1 -18  -6   18.47    2.88
   1 -18  -6   18.56    1.97
   1 -18  -6   15.07    1.54
   4  -7   2   28.51    2.12
   4  -7   2   19.58    1.97
   4   7   2   26.87    1.94
   4  -7   2   24.52    3.06
   4   7   2   28.47    2.48
   4   7   2   27.95    2.23
   4  -7   2   27.11    2.96
   4  -7   2   26.31    2.17
   4   7   2   26.10    2.36
   4   7   2   23.65    2.25
   4  -7   2   28.11    2.55
   4   7   2   20.29    3.00
   4   7   2   26.03    2.34
   4  -7   2   26.46    2.46
   0 -20  -5  276.07   12.47
   0 -20   5  252.13   12.49
   0 -20  -5  249.62   12.34
   0 -20  -5  239.79   12.43
   0 -20   5  252.59   12.46
   0 -20   5  241.78   12.78
   0 -20  -5  222.80   12.46
   2 -19   3  106.58    6.44
  -2 -19  -3  111.83    6.25
   2 -19   3  104.01    6.30
   2 -19   3  116.34    6.25
   0  -6 -10   27.66    2.96
   0  -6 -10   35.52    2.25
   0   6 -10   29.82    2.38
   0  -6 -10   28.86    2.33
   0  -6  10   36.14    2.44
   0  -6 -10   36.37    2.21
  -2   0  -9    0.02    1.21
   2   0   9    0.07    1.90
  -2   0  -9    0.04    1.19
   2   0   9    0.84    1.38
   2  15   6   70.62    3.98
   2 -15   6   63.80    3.63
  -2  15  -6   72.93    3.73
   2 -15   6   64.29    3.57
  -2 -15  -6   69.46    3.81
   2 -15   6   68.88    3.75
  -2 -15  -6   61.73    3.84
   2  15   6   53.00    3.47
   2 -15   6   50.34    3.71
   2  15   6   54.87    4.40
  -2  -1  -9    2.54    1.21
  -2   1  -9    2.99    1.26
   2   1   9    3.83    1.39
   2  -1   9    2.29    1.45
  -2   1  -9    3.77    1.24
   2  -1   9    2.93    1.97
  -2  -1  -9    2.13    1.22
   2   1   9    5.14    2.02
   2  -1   9    2.42    1.38
   4  -4  -4   35.30    2.48
   4   4  -4   27.63    2.93
   4   4  -4   30.51    2.72
   4   4  -4   37.77    3.17
   4   4  -4   33.28    2.68
   4   4  -4   29.98    2.38
   4  -4  -4   36.87    2.53
   4   4  -4   27.17    3.34
   4  -4  -4   38.10    3.68
   4  -4  -4   33.64    3.21
   4  -4  -4   31.19    3.21
   4  -4  -4   41.05    3.09
   4  -4  -4   41.59    3.38
   1   0  10   -1.02    1.90
  -1   0 -10    0.08    1.27
  -1   0 -10    0.74    1.30
   1   0  10    0.24    1.36
   3  -9   6   40.48    3.10
   3   9   6   24.40    2.23
   3  -9   6   29.06    2.00
   3   9   6   28.89    2.28
   3  -9   6   36.19    2.54
  -3  -9  -6   25.66    2.14
  -3  -9  -6   23.99    2.19
   3   9   6   37.30    2.89
   3  -9   6   26.32    2.03
   3   9   6   36.37    2.76
   3  -9   6   31.99    2.68
   3  -9   6   32.86    2.38
   2  -6  -9   23.86    2.39
   2  -6  -9   27.34    2.54
   2  -6  -9   18.40    1.96
   2  -6  -9   18.40    2.57
   2  -6  -9   22.34    2.56
   2  -6  -9   26.32    2.54
   2   6  -9   22.76    2.89
   2   6  -9   22.30    2.30
  -2  -6   9   18.06    1.73
   2   6  -9   18.88    1.72
  -1   1 -10   11.71    1.54
   1  -1  10   11.26    1.61
  -1  -1 -10   11.99    1.50
   1   1  10    7.62    2.12
  -1   1 -10   10.39    1.56
  -1  -1 -10    9.59    1.51
   3   4   7   -0.79    2.10
  -3   4  -7   -0.90    1.03
   3   4   7   -0.68    1.52
   3  -4   7    0.13    1.41
   3  -4   7   -1.23    1.79
  -3  -4  -7   -0.44    1.09
  -3   4  -7   -0.51    0.93
   3  -4   7   -3.49    2.15
  -3  -4  -7   -0.87    1.19
   3   4   7    0.05    1.56
   3  -4   7    0.02    1.94
   4  -5   3   86.19    4.71
   4  -5   3   71.74    3.95
   4   5   3   73.42    4.20
   4  -5   3   82.41    4.50
   4  -5   3   79.39    4.15
   4   5   3   57.22    4.12
   4   5   3   69.68    4.04
   4  -5   3   83.26    4.43
   4   5   3   68.32    4.29
   4   5   3   62.56    4.13
   4  -5   3   65.49    4.56
   4   5   3   62.33    4.15
   4   5   3   81.00    4.76
   4   5   3   76.69    4.41
   4  -5   3   71.91    4.17
   4  -9   0  169.27    8.79
   4   9   0  167.78    9.05
   4  -9   0  156.92    9.23
   4  -9   0  164.83    8.78
   4   9   0  190.24    9.46
   4  -9   0  187.66    9.32
   4   9   0  179.19    8.82
   4  -9   0  174.65    8.82
   4   9   0  173.88    9.01
   4   9   0  175.52    8.99
   4  -9   0  158.04    8.83
   4  -9   0  169.90    8.87
   4   7  -3   -1.19    2.12
   4  -7  -3   -0.22    2.88
   4  -7  -3   -3.41    2.24
   4  -7  -3    0.14    1.82
   4  -7  -3   -0.84    2.48
   4   7  -3    0.30    1.97
   4   7  -3    0.18    1.36
   4   7  -3    1.12    1.84
   4  -7  -3    0.59    2.26
   4  -7  -3   -0.72    1.89
   4  -7  -3    0.40    2.38
   4   7  -3   -1.90    2.41
   4   7  -3    0.14    1.68
   4  -7  -3   -3.78    2.85
   2  -2   9   16.03    1.72
  -2  -2  -9   13.82    1.53
   2   2   9   14.67    2.27
   2  -2   9   14.40    1.61
  -2   2  -9   14.44    1.59
  -2   2  -9   13.48    1.54
  -2  -2  -9   14.18    1.58
   2   2   9   10.04    1.55
   2  -2   9   13.30    2.15
   2  -2   9   12.56    1.72
   3  13  -5    5.84    1.69
   3 -13  -5    4.46    2.23
   3 -13  -5    3.55    1.89
   3 -13  -5    5.16    1.91
   3 -13  -5    3.92    1.36
   3 -13  -5    4.20    1.33
   3  13  -5    1.29    1.94
   3 -13  -5    5.05    2.15
   3  13  -5    2.46    2.41
   3 -13  -5    3.64    1.40
   2 -20  -2   30.57    3.05
   2 -20  -2   50.25    2.99
   2  20  -2   45.77    3.52
  -2 -20   2   44.84    3.01
   2  20  -2   44.03    3.01
   2 -20  -2   43.73    3.18
  -2 -20   2   49.59    3.12
   2  20  -2   29.40    3.55
   2 -20  -2   34.03    3.31
   2 -20  -2   47.37    3.41
   2 -20  -2   42.70    3.29
   4   9  -1   21.66    2.40
   4  -9  -1   17.40    2.41
   4  -9  -1   17.73    2.33
   4  -9  -1   20.53    2.05
   4   9  -1   15.74    2.80
   4  -9  -1   11.05    3.29
   4  -9  -1   18.48    2.63
   4   9  -1   16.10    2.72
   4   9  -1   18.73    2.49
   4   9  -1   18.04    2.10
   4   9  -1   19.73    2.50
   4  -9  -1   13.84    2.05
   0 -17  -7   46.64    2.84
   0 -17   7   36.85    2.92
   0 -17   7   44.39    3.00
   0 -17  -7   43.09    2.84
   0 -17  -7   51.82    3.13
   0 -17  -7   41.66    2.80
   0 -17  -7   41.84    2.84
  -1 -14   8    2.82    1.41
   1 -14  -8    0.93    2.10
   1 -14  -8    1.63    1.11
  -1 -14   8    1.03    1.51
   1  14  -8    1.16    2.02
   1 -14  -8    2.36    1.03
   1 -14  -8    0.03    1.91
   1 -14  -8    1.30    1.48
   1 -14  -8    1.43    1.63
   0 -22  -3  146.48    8.00
   0 -22  -3  129.09    7.77
   0 -22  -3  180.88    7.97
   0 -22  -3  138.39    7.88
   0 -22   3  165.94    8.31
   0 -22  -3  155.10    7.72
   0 -22   3  144.64    7.90
   0 -22   3  159.95    7.97
   1   2  10    0.58    2.01
   1  -2  10    2.32    1.37
   1  -2  10    0.25    1.73
  -1   2 -10    2.65    1.81
  -1  -2 -10    0.83    1.27
  -1   2 -10    0.73    1.31
  -1   2 -10    1.11    1.34
  -1  -2 -10    1.13    1.28
   3 -15   3    4.43    1.57
   3  15   3   12.04    2.71
   3 -15   3    9.90    1.76
   3  15   3    8.69    1.33
  -3 -15  -3    9.60    1.55
  -3 -15  -3   10.06    1.54
   3  15   3    8.44    1.64
   3 -15   3    9.74    1.86
   3 -15   3    5.07    1.72
   2  11  -8   71.26    4.89
   2 -11  -8   75.34    4.53
   2  11  -8   85.54    4.38
   2  11  -8   66.92    4.46
   2 -11  -8   78.34    4.94
   2 -11  -8   82.94    4.49
   2 -11  -8   83.29    4.75
  -2 -11   8   76.00    4.36
   2  11  -8   74.12    4.84
  -2 -11   8   80.61    4.34
   2 -11  -8   79.81    4.86
   1 -16   7   26.82    2.26
   1 -16   7   29.08    2.54
  -1 -16  -7   33.23    2.37
  -1 -16  -7   32.69    2.43
   1 -16   7   29.99    2.33
  -1  16  -7   30.51    2.46
  -1 -16  -7   28.14    2.09
   0 -23   0    0.49    1.49
   0 -23   0   -1.54    1.85
   0 -23   0    0.03    1.40
   0 -23   0    1.01    1.48
   3 -11  -6   38.34    3.31
   3  11  -6   41.30    3.22
   3 -11  -6   38.59    3.42
   3 -11  -6   35.70    2.72
   3  11  -6   37.99    2.87
   3 -11  -6   33.21    2.58
   3  11  -6   40.70    3.43
   3 -11  -6   36.41    2.57
   3 -11  -6   39.72    2.95
   3 -11  -6   37.40    3.31
   3 -11  -6   40.26    3.02
   1 -22  -2   21.95    2.39
   1 -22  -2   21.97    1.84
   1 -22  -2   20.64    2.32
  -1 -22   2   21.63    2.17
  -1 -22   2   22.68    2.33
   1 -22  -2   25.54    1.97
   1 -22  -2   18.72    1.81
   1 -22  -2   28.52    2.56
  -1 -22   2   21.82    2.62
   1  -5 -10   -0.73    1.06
   1  -5 -10   -1.29    1.74
   1  -5 -10    0.36    1.88
   1   5 -10   -0.43    1.72
   1  -5 -10   -0.62    1.98
   1   5 -10   -1.67    1.31
   1  -5 -10    0.06    1.60
  -1  -5  10   -1.48    1.41
   1  -5 -10   -0.25    0.98
   1   5 -10   -1.24    2.39
  -1  10  -9   46.19    3.09
  -1 -10  -9   45.51    2.97
   1 -10   9   41.86    2.97
  -1 -10  -9   53.99    3.02
  -3 -12  -5    2.49    1.26
   3  12   5   -0.62    1.86
   3 -12   5    2.23    1.79
   3 -12   5    1.32    1.52
   3  12   5    2.76    1.31
   3 -12   5    1.66    1.43
   3 -12   5    2.21    2.29
   3  12   5    2.66    1.31
  -3 -12  -5    1.46    1.29
   3 -12   5    2.87    1.03
   3  12   5    1.21    2.07
   2 -16  -6   35.46    2.86
  -2 -16   6   29.69    2.40
   2  16  -6   41.14    3.50
   2 -16  -6   46.05    3.47
  -2 -16   6   28.10    2.43
   2 -16  -6   35.36    2.55
   2 -16  -6   40.45    2.90
   2 -16  -6   23.01    2.64
   2 -16  -6   31.59    2.24
   2  16  -6   38.29    2.67
   2  16  -6   39.29    2.49
   2 -16  -6   32.99    2.64
  -2 -17  -5   10.56    1.68
  -2 -17  -5    9.32    1.68
  -2  17  -5    9.22    1.35
   2 -17   5    7.22    1.79
   2 -17   5    7.11    1.29
   2 -17   5    6.38    1.52
   2  17   5    6.26    1.76
   2 -17   5    7.42    1.17
   2 -17   5    5.39    2.29
   2  -3   9    3.69    1.35
   2  -3   9    4.79    1.87
   2  -3   9    2.89    1.29
   2   3   9    2.54    2.05
  -2  -3  -9    2.98    1.19
   2  -3   9    4.40    1.52
  -2   3  -9    2.98    1.28
  -2  -3  -9    3.06    1.28
  -2   3  -9    1.80    1.19
   3 -16   2    9.02    1.78
  -3 -16  -2    9.42    1.53
   3  16   2   10.08    1.35
   3 -16   2   10.64    1.73
   3 -16   2    6.68    1.62
  -3 -16  -2   12.99    1.60
   3  16   2    5.58    2.71
   3  16   2    8.45    1.79
   3 -16   2    6.88    2.39
   3 -16   2    8.51    1.92
  -2  13  -7    4.06    1.28
  -2 -13  -7    1.99    1.40
  -2 -13  -7    2.48    1.50
   2  13   7    1.57    2.03
   2 -13   7    2.66    1.22
   2  13   7    5.35    1.98
   2  13   7    3.35    1.14
   2 -13   7    3.27    1.24
   2 -13   7    3.17    1.16
   2 -14  -7   17.42    1.87
   2 -14  -7   18.68    2.33
   2 -14  -7   20.46    2.26
   2 -14  -7   20.08    1.87
   2  14  -7   17.24    1.81
   2 -14  -7   17.18    2.64
  -2 -14   7   13.76    1.76
   2 -14  -7   15.24    1.65
   2  14  -7   17.14    2.25
   2 -14  -7   13.66    1.86
   2 -14  -7   14.95    1.87
   2  14  -7   19.08    2.70
  -2 -14   7   15.82    1.71
   3  -8  -7  141.52    7.70
   3   8  -7  145.33    7.71
   3  -8  -7  159.27    7.84
   3  -8  -7  130.79    7.28
   3  -8  -7  129.99    7.65
   3   8  -7  133.76    7.37
   3  -8  -7  151.73    7.53
   3  -8  -7  126.87    7.09
   3   8  -7  140.84    7.69
   3   8  -7  145.31    7.42
   3  -8  -7  134.80    7.27
   4   5  -4   16.19    2.53
   4   5  -4    7.11    2.26
   4  -5  -4   15.01    1.79
   4  -5  -4   13.11    2.68
   4   5  -4   10.82    1.67
   4  -5  -4   13.98    2.62
   4   5  -4   14.49    2.20
   4  -5  -4   16.81    1.79
   4   5  -4   15.12    2.94
   4   5  -4   18.07    2.07
   4  -5  -4   18.06    3.26
   4  -5  -4   11.68    2.77
   4  -5  -4   17.45    2.39
   1 -18   6   12.76    2.12
  -1 -18  -6    9.02    1.63
   1 -18   6   11.78    1.58
   1 -18   6    9.95    1.59
  -1 -18  -6    9.47    1.70
  -1 -18  -6   13.14    1.85
  -1  -3 -10    4.48    1.36
  -1   3 -10    6.86    1.47
  -1   3 -10    7.14    1.81
  -1   3 -10    5.18    1.41
   1  -3  10    5.18    1.47
  -1  -3 -10    5.06    1.33
   1  -3  10    3.26    1.71
   1 -22   2    7.23    1.32
   1 -22   2    6.59    1.39
   1 -22   2    8.12    1.60
   1 -22   2    9.85    2.31
  -1 -22  -2    7.19    1.66
  -1 -22  -2    6.39    1.69
   0 -23   1    9.31    1.71
   0 -23  -1    7.00    1.85
   0 -23  -1    6.75    1.59
   0 -23  -1    9.91    1.67
   0 -23   1    7.71    1.57
   0 -23   1    9.26    1.66
   0 -23  -1    8.59    1.73
   0 -23   1    7.53    2.09
   3  -5   7   13.25    2.08
  -3  -5  -7   15.41    1.49
   3  -5   7   12.60    1.99
   3   5   7   11.37    1.73
  -3   5  -7   16.68    1.40
   3  -5   7   15.09    1.74
   3  -5   7   10.70    2.31
  -3  -5  -7   14.63    1.58
  -3   5  -7   16.37    1.37
   3   5   7   12.73    2.32
   3   5   7   15.41    1.78
   1 -11  -9    1.14    1.56
   1  11  -9    1.66    1.37
   1 -11  -9   -0.12    1.83
  -1 -11   9    1.01    1.33
  -1 -11   9    0.95    1.42
   1  11  -9   -0.06    1.75
   1 -11  -9    0.96    1.09
   1 -11  -9    1.14    1.56
   1 -11  -9    0.03    2.03
   1 -11  -9   -0.03    1.69
   1  11  -9   -1.58    2.38
   1 -11  -9    1.35    1.01
  -2 -20  -2   10.60    1.74
   2 -20   2    9.18    1.79
   2 -20   2    7.45    2.12
   2 -20   2    5.47    1.99
  -2 -20  -2   10.21    1.79
   4   9   1    8.88    1.12
   4   9   1    8.12    1.94
   4  -9   1    9.99    1.48
   4   9   1    6.18    1.81
   4  -9   1    7.51    2.77
   4   9   1    8.70    1.72
   4  -9   1    3.67    2.50
   4  -9   1    6.31    1.56
   4   9   1    6.51    1.50
   4   9   1    7.45    1.59
   4  -9   1    7.76    1.76
   4   9   1    2.07    2.36
   4  -9   1    7.81    1.91
   4  -9   1    6.29    1.61
   0   7 -10  142.09    7.56
   0  -7 -10  150.14    7.47
   0  -7 -10  146.87    7.46
   0  -7  10  147.07    7.59
   0  -7 -10  161.58    8.00
   0  -7 -10  131.78    7.49
   3  14   4   18.62    1.76
   3 -14   4   12.63    1.91
   3  14   4   18.21    1.87
  -3 -14  -4   20.04    1.90
   3  14   4   23.94    2.13
   3 -14   4   23.89    2.29
   3  14   4   20.65    2.86
   3 -14   4   26.71    2.78
   3 -14   4   21.91    2.11
   3 -14   4   20.49    1.65
  -3 -14  -4   20.60    1.89
   3 -14   4   18.55    1.96
   0 -19  -6    6.18    1.32
   0 -19  -6    5.74    1.46
   0 -19  -6    6.60    1.43
   0 -19   6    8.23    2.42
   0 -19   6    5.18    1.56
   0 -19   6    3.55    1.47
   0 -19  -6    5.98    1.50
   0 -19  -6    5.68    1.46
   0 -15  -8   -0.14    1.33
   0 -15  -8   -1.14    1.26
   0 -15  -8   -0.26    1.22
   0 -15  -8    0.72    1.33
   0 -15   8   -1.83    1.46
   0 -15  -8    2.05    1.94
   0 -15   8   -1.23    1.48
   4  -8   2   -0.21    1.27
   4   8   2    0.69    1.62
   4  -8   2   -0.58    1.38
   4   8   2    1.59    2.30
   4  -8   2    0.70    1.84
   4   8   2    0.51    1.38
   4  -8   2    1.18    1.79
   4  -8   2    0.90    2.42
   4  -8   2    2.05    2.63
   4   8   2    0.88    1.67
   4   8   2    0.72    1.02
   4  -8   2   -0.05    1.30
   4   8   2   -0.70    1.72
   4   8   2    1.43    1.44
   4  -6   3    1.73    2.17
   4  -6   3    2.04    1.74
   4  -6   3    0.94    2.11
   4  -6   3    3.53    1.66
   4   6   3   -1.94    1.87
   4   6   3    2.09    2.08
   4   6   3    2.90    1.51
   4   6   3   -0.41    2.44
   4   6   3    5.54    1.81
   4  -6   3    0.86    2.58
   4  -6   3   -0.20    2.49
   4   6   3    2.77    1.77
   4  -6   3    3.86    1.45
   4   6   3    5.99    2.10
   2   7  -9   35.23    2.76
   2   7  -9   34.50    2.84
   2  -7  -9   41.89    3.03
   2   7  -9   37.63    2.43
   2  -7  -9   42.52    3.06
   2  -7  -9   35.43    2.67
   2   7  -9   37.94    3.43
  -2  -7   9   38.57    2.47
   2  -7  -9   36.80    3.22
   2  -7  -9   39.44    3.03
   2  -7  -9   42.99    3.13
   0  12  -9    1.88    1.58
   0 -12   9   -0.07    1.38
   0 -12  -9   -0.50    2.07
   0 -12  -9   -2.40    1.79
   0 -12  -9    0.47    1.25
   0 -12  -9    0.06    1.26
   0 -12  -9    0.14    1.42
   0 -12   9    0.03    1.48
   0 -12  -9   -0.36    1.19
  -2  10  -8   81.13    4.09
   2 -10   8   69.34    3.93
  -2 -10  -8   63.15    4.05
   2  10   8   68.09    4.37
   2 -10   8   72.88    4.00
  -2 -10  -8   70.77    4.03
   4   9  -2   22.02    2.34
   4   9  -2   30.70    2.90
   4  -9  -2   19.57    1.91
   4   9  -2   16.07    1.95
   4  -9  -2   34.78    3.50
   4   9  -2   20.60    2.44
   4  -9  -2   24.84    2.88
   4  -9  -2   22.48    2.40
   4   9  -2   24.05    2.67
   4  -9  -2   25.01    2.68
   4  -9  -2   20.54    2.40
   4   9  -2   25.03    2.80
   4   0   4    9.84    1.63
   4   0   4   13.34    2.07
   4   0   4    7.51    1.47
   4   0   4    5.22    1.44
   4   0   4   15.07    2.17
   4   0   4   14.63    2.22
  -2  -4  -9    2.83    1.22
   2  -4   9    5.12    1.33
   2   4   9    3.61    2.07
  -2   4  -9    2.44    1.22
   2  -4   9    2.06    1.50
  -2  -4  -9    2.54    1.17
  -2   4  -9    2.61    1.29
   2  -4   9    3.67    1.29
   2  -4   9    2.87    1.77
   3   0  -8    1.03    2.51
   3   0  -8    0.64    1.96
   3   0  -8    0.91    1.77
   3   0  -8    0.17    1.28
   3   0  -8   -0.42    2.25
   3   0  -8   -0.60    1.43
   4  -1   4   14.96    1.84
   4   1   4   23.73    2.54
   4   1   4   20.21    1.86
   4  -1   4   18.84    1.86
   4  -1   4   19.71    2.32
   4  -1   4   24.29    2.47
   4  -1   4   19.62    1.94
   4   1   4   26.67    2.46
   4  -1   4   26.11    2.49
   4   1   4   21.69    1.98
   4   1   4   14.07    1.89
   4   1   4   21.18    2.32
   4  -1   4   17.73    2.28
   3 -17   0    1.84    1.71
  -3 -17   0    1.08    1.35
   3 -17   0    0.85    1.43
   3 -17   0    2.04    1.57
   3  17   0    1.64    1.86
   3  17   0    0.11    1.60
   3 -17   0   -0.03    2.46
   3 -17   0    1.40    1.60
  -3 -17   0    1.41    1.35
   3  17   0    0.34    1.06
   3  17   0    1.34    1.87
   3  17   0    1.07    2.40
   3 -17   0    3.31    2.00
   3   1  -8    8.35    2.26
   3  -1  -8    3.44    2.25
   3   1  -8    3.84    2.02
   3  -1  -8    2.50    1.95
   3  -1  -8    3.17    2.58
   3   1  -8    2.08    1.68
   3   1  -8    7.74    2.57
   3  -1  -8    4.63    1.87
   3   1  -8   11.21    1.99
   3  -1  -8    1.93    2.25
   3  -1  -8    4.33    1.45
   3   1  -8    6.77    1.48
   1  -4  10   14.66    1.99
   1  -4  10   24.48    2.02
  -1   4 -10   22.74    1.98
  -1  -4 -10   22.59    1.92
  -1   4 -10   17.55    2.10
  -1  -4 -10   24.04    1.87
  -1   4 -10   21.11    1.97
   1  -6 -10   30.36    1.94
  -1  -6  10   26.28    2.18
   1  -6 -10   25.26    2.76
   1   6 -10   27.67    3.12
   1  -6 -10   26.51    2.45
   1  -6 -10   29.32    2.66
   1   6 -10   26.88    2.15
   1  -6 -10   28.13    1.94
   1  -6 -10   30.11    2.49
   1   6 -10   24.28    2.44
   3 -17  -1   83.92    4.68
   3 -17  -1   72.93    4.57
   3  17  -1   76.76    4.09
  -3 -17   1   69.31    4.20
   3  17  -1   69.38    4.58
   3 -17  -1   89.59    4.42
   3 -17  -1   81.83    4.85
   3 -17  -1   59.83    4.40
   3  17  -1   77.68    4.68
   3  17  -1   50.96    4.82
   3  17  -1   72.91    4.61
  -3 -17   1   79.06    4.27
   3 -17  -1   70.30    4.40
   4   8  -3   13.08    1.97
   4  -8  -3    8.32    1.46
   4  -8  -3   10.28    2.06
   4  -8  -3   10.85    2.06
   4  -8  -3    8.01    1.37
   4   8  -3   12.08    1.64
   4   8  -3    9.57    2.12
   4   8  -3    9.10    2.36
   4  -8  -3    5.36    1.19
   4  -8  -3   12.47    2.61
   4   8  -3    9.32    2.52
   4  -8  -3   11.50    2.41
   4   8  -3   10.09    2.33
   4  -8  -3   13.41    3.00
   3 -16  -3    6.21    1.71
   3 -16  -3    6.53    2.52
   3 -16  -3    6.94    1.50
  -3 -16   3    4.01    1.29
   3 -16  -3    5.44    1.89
   3  16  -3    6.53    1.78
   3  16  -3    2.49    2.15
   3  16  -3    6.70    1.39
   3 -16  -3    3.53    2.07
   3  16  -3    2.15    2.02
  -3 -16   3    4.71    1.30
   3 -16  -3    7.76    2.07
   3 -16  -3    6.16    1.90
   3 -15  -4   11.84    2.16
   3 -15  -4   13.43    2.71
   3  15  -4   10.18    1.88
   3 -15  -4    4.40    1.69
   3 -15  -4   12.04    1.64
   3 -15  -4   12.32    2.19
   3 -15  -4   10.12    1.97
   3  15  -4    8.72    2.46
   3 -15  -4    9.27    1.28
   3 -15  -4    8.67    2.33
  -3 -15   4    7.57    1.35
   4   2   4   55.83    3.57
   4   2   4   47.14    3.25
   4   2   4   54.36    3.30
   4  -2   4   46.20    3.15
   4  -2   4   40.48    3.46
   4  -2   4   53.81    3.67
   4   2   4   54.01    3.73
   4   2   4   55.66    3.53
   4  -2   4   55.31    3.22
   4  -2   4   54.97    3.27
   4  -2   4   54.93    3.60
   4   2   4   53.07    3.18
   4  -2   4   53.26    3.56
   2  19  -4    2.63    1.32
  -2 -19   4    1.09    1.52
  -2 -19   4    0.63    1.39
   2 -19  -4    1.18    1.73
   2 -19  -4    1.05    1.78
   2  19  -4    2.46    2.38
   2 -19  -4    1.26    1.72
   2 -19  -4    1.77    2.33
   2 -19  -4    2.19    1.54
   3  -2  -8  126.58    6.70
   3  -2  -8  112.56    6.85
   3  -2  -8  109.98    6.65
   3  -2  -8  125.53    6.52
   3   2  -8  141.59    6.70
   3  -2  -8  107.36    6.27
   3   2  -8   99.95    6.16
   3   2  -8  126.54    6.52
   3  -2  -8  103.42    6.37
   3   2  -8  108.46    6.39
   3   2  -8   99.35    6.30
   1 -14   8   18.85    2.07
  -1  14  -8   29.19    2.26
   1 -14   8   26.74    2.10
  -1 -14  -8   27.35    2.21
  -1 -14  -8   23.77    1.97
  -1 -14  -8   26.30    2.12
   1 -14   8   23.99    2.15
  -1 -21   4    2.66    1.57
   1 -21  -4    4.26    1.58
   1 -21  -4    5.54    1.19
   1 -21  -4    4.24    1.16
   1 -21  -4    6.47    1.86
   1 -21  -4    3.59    1.84
   1 -21  -4    4.11    1.40
  -1 -21   4    3.28    1.66
  -3 -10  -6   66.47    4.17
   3 -10   6   72.35    4.74
   3  10   6   60.28    4.09
   3  10   6   73.17    4.19
   3 -10   6   63.92    4.27
   3 -10   6   84.66    4.35
   3  10   6   60.95    4.61
  -3 -10  -6   79.21    4.19
   3  10   6   82.23    4.54
   3 -10   6   84.70    4.58
   3 -10   6   82.61    4.09
   4   6  -4   67.58    4.33
   4  -6  -4   56.50    4.32
   4   6  -4   67.63    4.45
   4  -6  -4   66.19    4.36
   4  -6  -4   61.49    3.59
   4  -6  -4   70.39    4.09
   4   6  -4   52.25    4.09
   4   6  -4   69.15    3.92
   4  -6  -4   52.85    3.62
   4   6  -4   59.07    3.65
   4  -6  -4   68.36    4.82
   4   6  -4   56.41    4.04
   4  -6  -4   54.66    3.57
   4  -6  -4   72.40    4.23
   1 -20  -5  122.32    7.44
   1 -20  -5  168.90    7.76
  -1 -20   5  156.78    7.74
   1 -20  -5  142.43    8.28
   1 -20  -5  159.28    7.92
  -1 -20   5  153.21    7.76
   1 -20  -5  128.91    7.55
   3  -6   7    3.68    1.18
   3  -6   7    6.43    1.85
  -3   6  -7    4.09    1.06
   3  -6   7    3.44    2.20
   3   6   7    4.76    1.60
  -3  -6  -7    3.72    1.16
   3  -6   7    4.24    1.51
   3   6   7    4.11    1.42
  -3  -6  -7    4.09    1.29
   3   6   7    4.51    2.17
   3   6   7    2.87    1.43
   3  -6   7    2.49    1.78
   4  10   0   50.11    3.50
   4 -10   0   49.56    3.52
   4  10   0   49.02    3.19
   4  10   0   55.46    4.09
   4 -10   0   50.20    3.35
   4 -10   0   50.48    3.42
   4  10   0   57.67    3.57
   4 -10   0   47.59    3.23
   4  10   0   47.77    3.48
   4 -10   0   53.99    3.27
   4 -10   0   53.35    4.17
   4 -10  -1   78.20    4.31
   4 -10  -1   64.30    4.24
   4  10  -1   72.46    4.43
   4  10  -1   73.48    4.40
   4 -10  -1   77.97    4.97
   4  10  -1   71.06    4.35
   4  10  -1   71.69    4.07
   4  10  -1   78.83    4.84
   4 -10  -1   75.24    4.44
   3  17   1    1.26    2.48
   3  17   1    1.36    1.05
   3  17   1    1.29    1.73
   3 -17   1    1.27    1.48
  -3 -17  -1    1.21    1.35
   3  17   1    1.22    1.42
   3 -17   1    1.66    2.67
  -3 -17  -1    1.34    1.32
   3 -17   1    0.91    1.85
   3 -17   1    0.13    1.53
   2 -18  -5    1.33    1.75
   2 -18  -5    1.30    1.84
  -2 -18   5    0.47    1.46
  -2 -18   5    2.44    1.34
   2  18  -5    1.11    2.50
   2 -18  -5    0.73    1.65
   2  18  -5    1.99    1.34
   2 -18  -5    2.39    1.50
   2 -18  -5    1.78    2.39
   2 -18  -5    0.28    1.65
   4   3   4    4.56    1.47
   4  -3   4    3.60    1.42
   4  -3   4    3.29    1.27
   4  -3   4    2.50    2.10
   4   3   4    2.46    1.80
   4  -3   4    3.49    2.07
   4  -3   4    0.19    2.01
   4   3   4    2.88    2.01
   4   3   4    3.58    1.48
   4   3   4    4.41    2.10
   4  -3   4    2.20    1.87
   4  -3   4    3.42    1.32
   4   3   4    3.36    1.27
   4   0  -5   -0.10    2.73
   4   0  -5    0.93    2.20
   4   0  -5    0.03    1.61
   4   0  -5    1.33    2.82
   4   0  -5    1.64    1.99
   4   0  -5    0.03    2.44
   2   5   9   28.86    2.79
  -2   5  -9   29.13    2.15
   2  -5   9   32.91    2.21
  -2  -5  -9   27.15    2.15
   2  -5   9   32.84    2.18
   2  -5   9   27.31    2.34
  -2   5  -9   31.37    2.20
  -2  -5  -9   28.24    2.09
   3  -3  -8   -1.47    2.41
   3  -3  -8    1.50    2.25
   3  -3  -8    5.62    1.98
   3   3  -8   -2.71    1.97
   3  -3  -8    1.71    2.54
   3   3  -8   -2.29    2.49
   3   3  -8   -0.14    2.06
   3   3  -8   -1.86    1.86
   3  -3  -8   -0.33    1.46
   3   3  -8    0.47    1.16
   3   3  -8   -3.79    1.80
   3  -3  -8    3.44    1.95
   1  17  -7    9.37    1.90
   1 -17  -7   10.19    1.90
   1 -17  -7    8.77    1.29
   1 -17  -7    9.50    1.64
   1 -17  -7   10.12    1.83
   1 -17  -7   11.55    2.49
  -1 -17   7    9.07    1.63
  -1 -17   7   10.46    1.73
   0 -23  -2   21.48    2.17
   0 -23   2   24.28    2.23
   0 -23   2   22.35    2.19
   0 -23  -2   25.19    2.18
   0 -23  -2   21.26    2.25
   0 -23   2   22.85    2.01
   4  -1  -5    9.11    2.12
   4  -1  -5    8.05    2.92
   4   1  -5    7.28    2.58
   4  -1  -5    8.33    2.61
   4  -1  -5    8.57    1.53
   4   1  -5    7.58    2.94
   4   1  -5    8.96    1.73
   4   1  -5   10.49    2.98
   4   1  -5    8.15    2.15
   4   1  -5    4.03    2.27
   4  -1  -5    8.42    1.70
  -1   5 -10   10.65    1.63
  -1   5 -10   10.63    1.59
  -1  -5 -10    9.57    1.44
  -1  -5 -10   12.45    1.55
   1  -5  10   11.90    1.63
  -2 -20   3    1.11    1.52
   2  20  -3    1.66    2.20
   2 -20  -3    0.03    1.86
   2  20  -3    1.27    1.92
   2  20  -3   -0.92    1.36
   2 -20  -3    2.50    2.18
  -2 -20   3    0.20    1.48
   2 -20  -3    2.00    1.75
   2 -20  -3    0.44    1.45
   2 -20  -3    0.03    1.77
   4  -7   3  136.53    6.50
   4  -7   3  123.45    6.50
   4   7   3  124.80    6.52
   4  -7   3  139.32    6.78
   4  -7   3  104.12    6.81
   4  -7   3  114.99    6.85
   4   7   3  115.60    6.62
   4   7   3   96.72    6.52
   4   7   3  135.66    7.09
   4   7   3  121.63    6.53
   4  -7   3  139.42    6.65
   4   7   3  118.73    6.37
   3  -9  -7   22.68    2.80
   3   9  -7   20.06    2.70
   3  -9  -7   13.72    2.12
   3  -9  -7   12.21    1.66
   3  -9  -7   18.98    2.23
   3  -9  -7   19.85    2.72
   3  -9  -7   12.16    1.77
   3   9  -7   13.53    2.07
   3  -9  -7   23.74    2.76
   3   9  -7   20.49    2.57
   0  -8 -10  124.00    6.52
   0  -8 -10  112.28    6.55
   0   8 -10  127.84    6.65
   0  -8 -10  126.42    7.05
   0  -8  10  119.23    6.65
   0  -8 -10  142.34    6.55
  -1 -21  -4   12.84    1.85
   1 -21   4   13.20    1.66
   1 -21   4   16.12    2.38
  -1 -21  -4   12.43    1.83
   1 -21   4   11.70    1.54
   1 -21   4   12.72    1.81
   1 -21   4   14.31    1.56
   2  12  -8    0.03    2.09
   2  12  -8   -1.19    1.31
  -2 -12   8   -0.21    1.31
   2 -12  -8    0.41    1.76
   2  12  -8    1.76    1.51
   2 -12  -8    0.28    2.07
   2 -12  -8   -0.12    1.63
   2 -12  -8   -0.94    2.20
   2 -12  -8   -0.37    1.45
   2  12  -8   -0.04    2.15
  -2 -12   8   -2.01    1.28
  -1 -11  -9   -0.02    1.22
  -1  11  -9   -0.02    1.35
   1 -11   9   -0.78    1.40
  -1 -11  -9    0.54    1.36
   1 -11   9    0.57    1.27
   4  -2  -5    2.97    2.90
   4  -2  -5    2.51    1.98
   4  -2  -5    4.00    1.61
   4   2  -5   -1.08    2.15
   4  -2  -5    0.78    2.23
   4   2  -5    3.47    3.08
   4  -2  -5    2.83    1.34
   4  -2  -5    2.06    2.56
   4   2  -5    2.48    1.66
   4   2  -5   -0.58    2.77
   4   2  -5    2.48    2.10
   4   2  -5    5.87    2.56
   2   8  -9    2.68    1.70
   2  -8  -9    1.07    2.02
   2  -8  -9    0.46    2.17
   2  -8  -9    2.69    1.89
  -2  -8   9    2.83    1.21
   2  -8  -9    2.94    1.97
   2   8  -9    0.72    2.27
   2  -8  -9    2.59    1.44
   2  -8  -9    2.57    1.82
   2   8  -9    0.76    1.66
   2   8  -9    4.16    1.17
   3 -12  -6   27.27    2.61
   3 -12  -6   28.99    2.88
   3  12  -6   31.65    3.08
   3 -12  -6   24.34    2.12
   3 -12  -6   31.11    2.56
   3 -12  -6   22.15    2.12
   3 -12  -6   25.28    2.21
   3  12  -6   32.82    2.77
   3 -12  -6   31.89    2.93
   3 -12  -6   33.30    3.06
   3  12  -6   23.44    2.38
   2 -21   0   47.21    3.38
  -2 -21   0   40.81    2.92
   2 -21   0   32.09    3.01
   2 -21   0   41.15    3.06
   2 -21   0   43.14    2.82
   2 -21   0   36.23    2.90
  -2 -21   0   40.83    2.89
   2  21   0   34.65    2.95
  -2 -21   0   36.59    2.84
   2 -21   0   48.73    3.38
   1 -22  -3   16.48    2.17
   1 -22  -3   11.67    1.45
  -1 -22   3   11.90    2.59
  -1 -22   3   16.16    1.93
  -1 -22   3   13.83    1.96
   1 -22  -3   12.76    1.94
   1 -22  -3   16.86    1.74
   1 -22  -3   14.52    2.16
   1 -22  -3   14.50    1.54
   3  17  -2    7.87    1.84
   3 -17  -2    4.99    1.97
   3 -17  -2    7.89    1.84
   3 -17  -2    5.17    2.12
   3  17  -2    3.01    2.21
   3  17  -2    6.55    2.19
   3 -17  -2    5.36    1.80
  -3 -17   2    5.71    1.42
   3 -17  -2    6.06    2.55
  -3 -17   2    6.98    1.37
   3  17  -2    6.65    1.30
   3  17  -2    5.49    2.07
   3 -17  -2    5.22    1.51
   4   9   2    8.65    1.86
   4   9   2    5.91    1.53
   4  -9   2    7.80    1.44
   4  -9   2    9.46    2.03
   4   9   2    4.88    1.72
   4   9   2    9.34    1.79
   4  -9   2    5.36    1.40
   4  -9   2    8.46    2.42
   4   9   2    8.35    2.50
   4  -9   2    8.06    1.65
   4   9   2    4.62    1.46
   4   9   2    8.31    1.18
   4  -9   2    6.82    1.83
   4  -9   2    9.75    2.69
   1  -7 -10    0.26    0.97
   1   7 -10   -1.98    1.71
   1  -7 -10   -1.83    1.99
   1  -7 -10    0.31    1.51
   1  -7 -10    0.36    1.04
   1   7 -10   -2.51    1.42
   1  -7 -10   -0.39    1.66
   1   7 -10   -4.21    2.59
  -1  -7  10   -1.50    1.42
   1  -7 -10    1.13    1.80
   3  14  -5   24.69    2.51
   3 -14  -5   27.75    2.20
   3 -14  -5   26.98    2.06
   3 -14  -5   20.68    2.17
   3 -14  -5   23.55    2.50
   3 -14  -5   33.80    2.65
   3  14  -5   29.50    3.05
   3 -14  -5   26.67    2.74
   3  14  -5   29.31    2.43
   3 -14  -5   27.64    3.02
   4 -10   1   31.69    2.44
   4  10   1   25.47    2.56
   4  10   1   30.06    2.43
   4 -10   1   33.79    2.59
   4 -10   1   26.96    2.31
   4 -10   1   27.57    2.31
   4 -10   1   24.20    2.17
   4 -10   1   40.68    3.46
   4  10   1   24.19    2.23
   4  10   1   30.62    2.59
   4  10   1   34.73    3.36
   2 -16   6    4.92    1.60
   2  16   6    5.80    2.36
  -2  16  -6    5.31    1.32
  -2 -16  -6    5.59    1.50
   2 -16   6    6.22    1.37
  -2 -16  -6    4.03    1.55
   2 -16   6    5.46    1.12
   2 -16   6    3.21    1.19
  -1 -20  -5   12.03    1.75
   1 -20   5    9.53    1.95
   1 -20   5   10.63    1.59
   1 -20   5   11.13    1.55
  -1 -20  -5    7.68    1.69
   1 -20   5   10.60    2.20
   4  -4   4   14.01    1.61
   4  -4   4   12.16    1.68
   4  -4   4    9.14    2.23
   4   4   4   10.48    1.69
   4   4   4   13.53    1.97
   4   4   4   12.03    1.72
   4  -4   4   11.52    2.17
   4  -4   4   12.11    1.46
   4   4   4   13.60    2.37
   4   4   4   15.24    2.21
   4   4   4    6.70    1.48
   4   4   4   10.26    1.49
   4  -4   4   10.64    2.17
   4  -4   4   14.97    2.13
   3   4  -8   58.07    4.00
   3   4  -8   56.92    3.83
   3  -4  -8   61.62    3.93
   3  -4  -8   60.53    4.37
   3   4  -8   55.59    3.47
   3  -4  -8   69.19    4.02
   3   4  -8   62.31    3.93
   3  -4  -8   57.42    3.66
   3   4  -8   66.64    3.95
   3   4  -8   55.33    4.33
   3  -4  -8   71.58    4.26
   3  -4  -8   63.69    4.42
   2  21  -1   -0.28    2.54
   2 -21  -1    1.38    1.73
   2 -21  -1    0.97    1.83
   2 -21  -1    0.17    1.94
   2 -21  -1   -0.81    1.99
  -2 -21   1    0.72    1.56
  -2 -21   1   -0.68    1.56
   2  21  -1   -1.20    1.85
   2 -21  -1    0.67    1.37
   2 -21  -1    1.53    1.87
   2  21  -1    1.28    1.48
  -3 -13  -5    0.02    1.25
   3 -13   5    0.72    2.24
   3  13   5    0.51    1.22
   3 -13   5   -0.10    1.74
   3 -13   5    1.40    0.96
   3  13   5    1.63    2.04
   3 -13   5    0.39    1.39
  -3 -13  -5    1.75    1.35
   3  13   5    1.38    1.76
   3 -13   5    0.05    1.45
   1  15  -8    8.14    2.16
   1 -15  -8    7.43    1.24
   1 -15  -8   10.09    2.35
   1 -15  -8    8.97    1.74
  -1 -15   8    8.46    1.73
  -1 -15   8    6.63    1.55
   1 -15  -8    7.74    1.68
   1 -15  -8   11.36    2.09
   4   3  -5   17.17    3.57
   4   3  -5   16.18    2.15
   4  -3  -5   15.37    1.88
   4  -3  -5   19.78    2.04
   4  -3  -5   19.99    2.80
   4   3  -5   16.60    2.58
   4  -3  -5   23.47    2.43
   4   3  -5   22.11    2.69
   4  -3  -5   23.08    3.24
   4   3  -5   16.68    3.16
   4   3  -5   22.28    2.93
   4  -3  -5   18.33    1.76
   4  -3  -5   17.92    2.63
   4  -3  -5   26.14    3.01
   4   7  -4    3.58    1.42
   4   7  -4    2.23    1.94
   4  -7  -4    2.12    1.35
   4  -7  -4    4.48    2.43
   4   7  -4    2.82    1.79
   4   7  -4    2.12    2.42
   4  -7  -4    3.65    2.95
   4  -7  -4    0.31    2.56
   4  -7  -4    1.38    1.94
   4  -7  -4    2.63    1.33
   4   7  -4    2.18    2.20
   4  -7  -4    3.82    2.20
   4   7  -4    2.33    2.56
   1 -23   0    3.06    1.63
   1 -23   0    3.18    1.22
   1 -23   0    1.80    1.83
  -1 -23   0    4.03    1.76
   1 -23   0    4.07    2.05
  -1 -23   0    3.99    1.36
  -1 -23   0    3.16    1.68
  -1 -23   0    2.33    1.54
   1 -23   0    3.44    1.20
   4 -10  -2   82.27    4.84
   4  10  -2   80.77    4.85
   4  10  -2   87.74    4.68
   4  10  -2   73.60    4.70
   4 -10  -2   75.42    5.23
   4  10  -2   69.36    4.90
   4 -10  -2   59.68    4.33
   4  10  -2   86.41    4.43
   4 -10  -2   74.75    4.58
   4 -10  -2   90.80    4.72
   4 -10  -2   60.13    4.23
   4  10  -2   82.25    4.76
   1 -12  -9    2.23    1.89
   1  12  -9    4.74    1.53
   1 -12  -9    2.74    1.56
   1  12  -9    0.72    2.32
   1 -12  -9    2.88    1.73
  -1 -12   9    3.64    1.45
   1 -12  -9    4.89    2.10
   1 -12  -9    2.64    1.11
   1 -12  -9    4.09    1.63
   1  12  -9    2.89    1.83
  -1 -12   9    5.10    1.44
   2 -19   4    0.41    1.84
   2 -19   4    1.50    1.98
   2 -19   4    0.78    1.05
  -2 -19  -4   -0.83    1.55
   2 -19   4    0.23    1.44
  -2 -19  -4    1.01    1.44
   3  -7   7   30.69    2.43
   3   7   7   23.03    2.08
   3   7   7   21.42    2.04
   3  -7   7   33.02    2.87
   3  -7   7   22.78    1.89
  -3  -7  -7   23.28    1.96
   3  -7   7   30.19    2.53
   3   7   7   31.27    2.73
   3   7   7   29.90    2.38
  -3  -7  -7   21.93    2.04
   3  -7   7   29.91    2.20
  -1 -19   6   67.66    3.99
   1 -19  -6   68.84    3.96
   1 -19  -6   74.27    4.79
   1 -19  -6   65.58    3.95
   1 -19  -6   78.89    4.25
  -1 -19   6   66.53    4.03
   4   9  -3    9.07    2.33
   4   9  -3    9.31    1.95
   4  -9  -3   11.65    2.12
   4  -9  -3   10.27    2.07
   4   9  -3   11.14    1.61
   4  -9  -3    9.85    1.52
   4  -9  -3    9.64    1.40
   4   9  -3    8.06    2.37
   4   9  -3   11.15    2.30
   4  -9  -3    9.83    2.64
   4  -9  -3    8.82    2.97
   4  -9  -3   11.52    2.45
   4   9  -3    6.01    2.19
   1 -22   3   26.97    2.22
  -1 -22  -3   29.58    2.46
   1 -22   3   27.29    2.11
   1 -22   3   28.37    2.21
   1 -22   3   26.38    2.85
  -1 -22  -3   36.09    2.54
   2  -6   9   18.80    1.70
   2  -6   9   12.50    1.95
   2   6   9   20.14    2.46
  -2   6  -9   16.71    1.69
  -2  -6  -9   16.87    1.65
  -2  -6  -9   18.99    1.76
   2  -6   9   17.96    1.73
  -2   6  -9   17.61    1.74
   3 -16   3    5.14    1.73
  -3 -16  -3    5.81    1.45
   3 -16   3    4.58    1.44
   3  16   3    3.83    2.61
   3  16   3    2.11    1.45
  -3 -16  -3    6.23    1.46
   3 -16   3    4.86    1.65
   3 -16   3    5.62    2.33
   3 -16   3    5.38    1.69
   2 -11   8   55.36    3.31
  -2  11  -8   60.95    3.43
  -2 -11  -8   56.45    3.52
  -2 -11  -8   52.46    3.39
   2  11   8   67.12    3.86
   2 -11   8   55.63    3.38
  -2 -14  -7   73.99    4.09
  -2  14  -7   72.91    4.00
  -2 -14  -7   70.34    4.13
   2  14   7   57.78    4.41
   2 -14   7   66.60    3.87
   2 -14   7   64.79    3.88
   2  14   7   82.37    4.32
   2 -14   7   68.92    3.93
   2 -21   1   11.02    2.28
  -2 -21  -1    7.73    1.67
  -2 -21  -1    8.33    1.71
   2 -21   1   10.11    1.86
   2 -21   1    7.58    2.11
   2  21   1    6.94    1.57
  -1  -6 -10    0.65    1.27
  -1  -6 -10    2.21    1.19
  -1   6 -10    0.50    1.40
  -1   6 -10    0.94    1.32
   1  -6  10    0.94    1.40
  -1 -23   1   11.84    1.84
   1 -23  -1    9.45    1.42
  -1 -23   1    8.81    2.08
  -1 -23   1   14.44    1.90
   1 -23  -1   10.22    1.96
   1 -23  -1    6.57    2.20
   1 -23  -1   13.05    2.14
   1 -23  -1   13.82    1.55
   1 -23  -1   11.67    2.17
  -2 -20  -3    7.27    1.66
   2 -20   3    5.88    1.58
   2 -20   3    3.64    1.99
  -2 -20  -3    5.83    1.66
   2 -20   3    4.11    1.95
   2  15  -7    1.47    2.32
   2 -15  -7    1.19    1.46
   2 -15  -7    1.53    2.31
   2 -15  -7    3.41    1.51
   2  15  -7    4.11    1.40
   2  15  -7    2.71    1.81
  -2 -15   7    3.52    1.35
   2 -15  -7    3.20    1.44
   2 -15  -7    5.02    1.97
   2 -15  -7    4.00    1.56
   2 -15  -7    0.92    1.77
   2 -15  -7    2.42    1.22
  -2 -15   7    3.04    1.46
   0 -22  -4    2.51    1.41
   0 -22   4    0.18    2.14
   0 -22  -4    0.83    1.37
   0 -22   4    1.76    1.52
   0 -22   4    2.20    1.38
   0 -22  -4    1.04    1.42
   1 -17   7   19.28    1.93
   1 -17   7   21.51    1.85
  -1 -17  -7   18.09    1.95
   1 -17   7   15.16    2.10
  -1  17  -7   20.67    2.02
  -1 -17  -7   20.23    1.91
  -1 -17  -7   14.18    2.17
   0 -18  -7    7.97    1.42
   0 -18  -7    5.90    1.69
   0 -18  -7    4.64    1.34
   0 -18   7    7.55    1.59
   0 -18  -7    5.83    1.45
   0 -18  -7    7.29    1.38
   0 -18   7    6.88    1.67
   0 -18   7    5.64    2.26
   0 -21   5    6.98    2.44
   0 -21   5    5.20    1.57
   0 -21  -5    6.41    1.48
   0 -21   5    4.99    1.48
   0 -21  -5    3.86    1.44
   0 -21  -5    6.93    1.50
  -1 -23  -1   12.60    1.86
   1 -23   1   16.69    1.93
  -1 -23  -1   13.81    1.79
  -1 -23  -1   11.80    1.84
   1 -23   1   12.98    2.33
   1 -23   1   12.91    1.55
   0 -13  -9   -0.62    1.79
   0 -13  -9   -0.60    1.19
   0 -13   9   -0.57    1.50
   0 -13   9    0.38    1.33
   0 -13   9   -0.83    1.71
   0 -13  -9   -1.09    2.00
   0 -13  -9    0.67    1.29
   0 -13  -9    0.83    1.35
   0  13  -9    0.93    1.50
   0 -13  -9   -0.36    1.19
   4   5   4    3.80    1.48
   4   5   4    5.09    1.82
   4   5   4    2.20    1.36
   4  -5   4    4.50    1.32
   4  -5   4    2.18    1.86
   4  -5   4    2.40    1.38
   4   5   4    4.02    1.45
   4  -5   4    2.41    2.11
   4   5   4    4.19    1.98
   4  -5   4   -0.70    2.04
   4   5   4    3.40    1.29
   4  -5   4    3.21    2.00
   4   5   4    2.07    2.04
   4  -4  -5  128.22    6.67
   4  -4  -5  122.21    7.20
   4  -4  -5  129.82    6.92
   4   4  -5  139.55    7.14
   4   4  -5  105.21    7.17
   4   4  -5  119.78    7.03
   4  -4  -5  130.04    7.43
   4  -4  -5  135.53    6.65
   4   4  -5  142.73    6.86
   4  -4  -5  114.38    6.54
   4   4  -5  123.24    7.45
   4  -4  -5  125.19    7.13
   4   4  -5  105.52    6.81
   3   5  -8   19.62    2.20
   3  -5  -8   11.81    2.83
   3  -5  -8   21.73    2.27
   3   5  -8   13.48    2.77
   3  -5  -8   16.66    2.80
   3  -5  -8   18.22    2.75
   3   5  -8   18.14    2.20
   3  -5  -8   17.15    1.93
   3  -5  -8   18.76    2.38
   3   5  -8   16.76    2.37
   3   5  -8   21.79    2.30
  -3 -11  -6    5.94    1.46
   3  11   6   11.70    2.07
   3 -11   6    7.41    1.63
  -3 -11  -6    4.05    1.32
   3 -11   6    8.24    1.96
   3 -11   6    9.02    1.61
   3  11   6    4.81    1.37
   3  11   6   17.56    2.30
   3 -11   6   12.58    2.52
   2 -17  -6    0.03    1.58
   2  17  -6   -1.07    2.46
   2 -17  -6   -0.91    1.80
  -2 -17   6    1.62    1.38
   2 -17  -6   -0.39    1.48
  -2 -17   6    0.05    1.38
   2 -17  -6    0.04    2.41
   2 -17  -6    0.05    1.43
   2  17  -6    0.58    1.28
   2 -17  -6   -1.66    1.81
   4   8   3   22.38    2.33
   4  -8   3   24.87    2.27
   4  -8   3   26.20    2.48
   4   8   3   30.37    2.25
   4  -8   3   20.12    2.70
   4  -8   3   12.79    2.88
   4   8   3   19.40    2.27
   4  -8   3   37.97    2.21
   4   8   3   19.64    2.77
   4  -8   3   28.42    2.61
   4   8   3   29.07    2.48
  -3 -17  -2    5.98    1.48
   3 -17   2    7.61    1.71
   3 -17   2    9.45    2.54
   3  17   2    4.80    1.65
   3  17   2    8.44    2.73
   3 -17   2    8.58    1.58
   3 -17   2    7.65    1.89
   3 -17   2    4.19    1.50
   3 -15   4   26.34    2.17
   3 -15   4   23.11    2.29
  -3 -15  -4   34.52    2.36
   3  15   4   26.48    3.18
   3 -15   4   28.66    2.46
   3 -15   4   36.88    2.63
   3 -15   4   34.14    3.07
   3  15   4   26.37    2.20
   4  11   0   52.87    3.41
   4 -11   0   47.93    3.24
   4  11   0   45.95    3.00
   4 -11   0   49.00    3.00
   4 -11   0   46.39    3.18
   4 -11   0   43.49    3.93
   4  11   0   41.26    3.26
   4 -11   0   45.34    3.28
   4  11   0   47.38    3.83
   4 -11   0   49.95    3.08
   4  11   0   42.34    3.33
   2 -18   5   22.06    1.86
   2  18   5   29.39    2.23
   2 -18   5   32.77    2.80
   2 -18   5   24.20    2.40
  -2 -18  -5   24.54    2.27
  -2 -18  -5   23.24    2.18
   2 -18   5   26.68    2.11
   4  11  -1  197.75    9.45
   4 -11  -1  155.75    9.45
   4  11  -1  186.00    9.94
   4 -11  -1  195.27    9.99
   4 -11  -1  168.77    9.48
   4 -11  -1  202.34    9.63
   4  11  -1  197.86    9.66
   4 -11  -1  185.45    9.64
   4  11  -1  191.44    9.69
   4  11  -1  181.34    9.65
   0 -16  -8    1.75    1.33
   0 -16  -8    6.14    1.89
   0 -16  -8    3.52    1.25
   0 -16   8    1.73    1.52
   0 -16   8    1.74    1.98
   0 -16   8    2.04    1.45
   0 -16  -8    1.49    1.35
   0 -16  -8    3.28    2.13
   0   9 -10  102.64    5.79
   0  -9 -10  101.16    5.72
   0  -9 -10  106.05    5.69
   0  -9  10  105.31    5.82
   2 -21  -2    0.66    1.95
  -2 -21   2   -1.33    1.56
   2 -21  -2    0.03    1.92
   2 -21  -2    0.41    1.84
   2  21  -2    0.10    1.91
   2  21  -2    0.47    1.33
  -2 -21   2    1.28    1.55
   2  21  -2    2.24    2.30
   2 -21  -2    1.10    1.76
   2 -21  -2    1.37    1.37
   3  10  -7   51.59    3.97
   3  10  -7   50.72    3.55
   3  10  -7   54.07    3.96
   3 -10  -7   67.41    4.21
   3 -10  -7   62.21    3.80
   3 -10  -7   64.60    4.15
   3 -10  -7   57.27    3.96
   3 -10  -7   48.84    3.41
   3 -10  -7   62.47    3.67
   3 -10  -7   50.24    3.51
  -1  -8  10   37.35    2.63
   1  -8 -10   41.79    2.90
   1   8 -10   39.83    2.74
   1  -8 -10   43.28    3.32
   1  -8 -10   37.41    3.05
   1   8 -10   41.00    3.66
   1  -8 -10   38.57    2.75
   1  -8 -10   34.66    2.42
  -2  -9   9    0.11    1.23
   2  -9  -9    0.81    2.25
   2  -9  -9    1.27    1.87
   2   9  -9    0.34    1.72
   2  -9  -9    1.38    1.92
   2  -9  -9    0.90    1.80
   2   9  -9    1.32    2.34
   2   9  -9    0.27    1.66
   2  -9  -9    0.89    1.43
  -1 -19  -6    2.70    1.55
   1 -19   6    2.02    1.44
   1 -19   6    1.64    1.87
  -1 -19  -6    2.30    1.44
  -2  -7  -9   31.28    2.34
   2   7   9   33.12    2.94
   2  -7   9   32.95    2.26
   2  -7   9   28.64    2.35
  -2   7  -9   32.27    2.33
   2  -7   9   36.90    2.37
   4  -8  -4    7.71    1.48
   4  -8  -4    9.03    2.16
   4   8  -4    7.03    2.26
   4  -8  -4    6.24    2.54
   4  -8  -4    8.97    2.36
   4   8  -4    7.79    2.43
   4   8  -4    5.77    1.83
   4  -8  -4    8.50    3.04
   4   8  -4    4.33    3.19
   4   8  -4    4.70    2.02
  -1 -15  -8   37.58    2.61
   1 -15   8   35.20    2.58
   4  10   2   -1.06    1.39
   4 -10   2   -0.80    1.73
   4 -10   2   -0.18    2.53
   4  10   2   -0.90    1.65
   4  10   2    0.80    2.37
   4  10   2    2.08    1.67
   4 -10   2    1.09    1.66
   4 -10   2    0.77    1.32
   4 -10   2    0.99    1.47
   4  -5  -5   53.76    3.48
   4   5  -5   52.31    3.70
   4  -5  -5   42.56    3.77
   4  -5  -5   40.27    2.99
   4  -5  -5   53.22    4.19
   4   5  -5   47.68    3.26
   4  -5  -5   38.41    2.91
   4  -5  -5   56.28    3.93
   4   5  -5   43.94    3.85
   4   5  -5   44.26    3.34
   4   5  -5   40.99    4.86
   3 -16  -4   -1.73    1.76
  -3 -16   4    1.02    1.19
   3  16  -4   -2.73    2.30
   3 -16  -4    0.15    1.53
   3 -16  -4   -0.41    1.91
   3 -16  -4    0.85    1.98
   3  16  -4   -1.45    1.61
   3 -16  -4   -0.79    2.17
   0 -23   3   23.59    2.08
   0 -23   3   19.41    2.69
   0 -23  -3   17.15    1.89
   0 -23  -3   22.85    2.03
  -1   7 -10   41.44    2.90
   1  -7  10   46.00    2.93
  -1  -7 -10   47.34    2.88
   3  -8   7  193.10    9.38
   3  -8   7  185.35    9.18
   3  -8   7  183.49    9.00
   3   8   7  183.62    9.15
  -3  -8  -7  164.65    8.93
   3   8   7  179.20    9.14
   3  -8   7  192.68    9.03
   1 -23  -2    1.09    1.09
   1 -23  -2    1.93    1.83
   1 -23  -2   -0.14    1.71
   1 -23  -2   -0.45    2.19
   1 -23  -2    0.86    1.71
  -1 -23   2    1.82    1.58
  -1 -23   2   -0.67    2.09
   4  -6   4   64.79    4.14
   4   6   4   67.86    3.92
   4   6   4   69.14    4.28
   4  -6   4   70.21    4.05
   4  -6   4   71.28    4.01
   4  -6   4   63.63    3.75
   4  -6   4   61.34    4.12
   4   6   4   58.54    3.89
  -1 -12  -9    3.62    1.46
   1 -12   9    2.69    1.43
   3  18   0   18.61    2.37
   3  18   0   13.14    2.77
   3 -18   0   18.69    2.15
   3 -18   0   14.42    1.95
   3 -18   0   17.52    2.72
   3 -18   0   18.89    2.31
   3 -18   0   21.10    2.43
   3  18   0   15.97    2.01
   3  18   0   19.52    2.25
  -3 -18   0   18.06    1.82
   3 -17  -3    1.07    1.73
   3  17  -3    0.33    2.09
   3 -17  -3   -1.48    2.00
   3 -17  -3   -0.42    1.54
   3  17  -3    0.91    1.91
   3 -17  -3    2.19    2.38
  -3 -17   3    0.97    1.26
   3 -17  -3    0.03    2.02
   3  17  -3    0.86    1.62
   3   6  -8    0.91    1.94
   3  -6  -8   -0.21    2.19
   3   6  -8    0.26    1.63
   3  -6  -8    0.52    1.71
   3   6  -8    0.03    1.80
   3  -6  -8   -1.01    2.36
   3  -6  -8    0.42    2.41
   3   6  -8   -0.83    2.39
   3  -6  -8   -0.12    1.95
   3   6  -8   -0.49    1.81
   4 -11   1   54.94    3.62
   4 -11   1   61.53    3.79
   4  11   1   65.51    3.90
   4  11   1   50.55    3.67
   4 -11   1   63.38    3.71
   4  11   1   58.52    4.49
   4 -11   1   66.99    4.50
   4 -11   1   67.45    3.75
   4  11   1   57.36    3.92
   0 -20   6    0.98    2.27
   0 -20  -6    0.83    1.37
   0 -20  -6    1.23    1.28
   0 -20   6    0.10    1.52
   2 -21   2   -0.39    1.55
   2 -21   2    0.57    2.00
  -2 -21  -2    1.36    1.54
   2 -21   2    0.45    1.86
   0 -24   0    0.29    1.77
   0 -24   0    0.03    1.43
   0 -24   0    0.41    1.41
   2  13  -8   -0.80    1.45
   2  13  -8    1.13    2.07
   2  13  -8   -0.81    1.98
   2 -13  -8   -0.39    1.24
  -2 -13   8   -0.96    1.35
   2 -13  -8   -1.63    2.25
   2 -13  -8    2.39    1.80
   2 -13  -8    1.58    2.00
   2 -13  -8   -0.90    1.62
   3 -18  -1    0.31    1.66
   3  18  -1   -0.20    2.28
   3 -18  -1   -1.28    1.67
   3 -18  -1    1.64    1.92
   3  18  -1    0.42    1.75
  -3 -18   1   -0.02    1.29
   3 -18  -1   -0.19    2.35
   3  18  -1   -0.08    1.93
   3 -18  -1    1.31    1.68
   3  18  -1   -0.46    1.78
   3 -13  -6   54.77    3.52
   3 -13  -6   53.99    3.60
   3  13  -6   53.13    3.43
   3  13  -6   51.90    3.59
   3 -13  -6   46.57    3.09
   3  13  -6   53.52    3.98
   3 -13  -6   42.20    3.05
   3 -13  -6   52.16    3.88
   3 -13  -6   54.97    3.70
   4  10  -3    1.49    1.66
   4  10  -3   -1.11    1.96
   4  10  -3    0.32    2.11
   4 -10  -3   -2.41    2.40
   4 -10  -3   -0.29    1.31
   4 -10  -3   -0.28    1.94
   4  10  -3    3.42    2.24
   4  10  -3    0.11    2.52
   4 -10  -3   -0.15    1.20
   4 -10  -3    3.69    2.85
   4 -10  -3    0.37    2.18
   4  11  -2    0.59    2.05
   4 -11  -2    0.96    1.35
   4  11  -2   -0.10    1.92
   4 -11  -2    0.07    1.26
   4  11  -2    1.11    1.74
   4 -11  -2    0.39    1.91
   4 -11  -2    2.25    1.98
   4  11  -2   -0.07    2.13
   4 -11  -2   -0.35    1.91
   4  11  -2    3.40    2.05
   1 -23   2   49.53    3.56
   1 -23   2   41.31    2.93
  -1 -23  -2   53.38    3.22
   1 -23   2   46.21    3.09
   2   0 -10  311.55   17.00
   2   0 -10  317.22   17.11
   2   0 -10  281.90   16.89
   2  -1 -10   24.92    2.66
   2   1 -10    7.38    2.55
   2   1 -10   15.73    2.50
   2  -1 -10   20.25    2.65
   2   1 -10   15.65    2.97
   2   1 -10   11.46    2.48
   2  -1 -10   18.31    2.80
   0 -24   1    2.17    1.48
   0 -24  -1    2.96    1.67
   0 -24   1    3.38    1.40
   0 -24  -1    0.84    1.61
   0 -24   1    2.03    1.93
   0 -24  -1    2.38    1.48
   2  20  -4   75.53    4.48
   2 -20  -4   83.13    4.77
   2 -20  -4   92.03    5.01
   2 -20  -4   71.93    5.12
   2  20  -4   79.68    5.28
   2 -20  -4   79.87    4.88
  -2 -20   4   84.28    4.67
   4   9   3    1.03    2.32
   4   9   3   -0.67    1.68
   4  -9   3    0.84    1.79
   4  -9   3    2.17    1.79
   4   9   3    0.16    1.59
   4  -9   3    0.26    1.43
   4  -9   3   -1.80    2.43
   4   9   3    2.13    1.68
   2  12   8    4.02    1.62
  -2 -12  -8    5.98    1.51
   2 -12   8    5.25    1.23
   2 -12   8    6.13    1.29
   2  12   8    3.88    2.05
   1 -13  -9    6.31    1.70
   1  13  -9    5.76    2.38
   1  13  -9    4.52    1.95
  -1 -13   9    6.40    1.61
   1 -13  -9    5.88    1.99
   1 -13  -9    3.03    1.14
   1 -13  -9    7.25    2.11
  -3 -18  -1    1.24    1.35
   3 -18   1    4.10    2.43
   3 -18   1    2.43    1.65
   3  18   1    1.20    1.37
   3 -18   1    1.16    1.92
   3  18   1    1.60    1.66
   3  18   1    0.08    2.44
   2  -2 -10   93.24    5.17
   2  -2 -10   76.47    5.08
   2   2 -10   81.19    5.05
   2  -2 -10   94.29    5.38
   2   2 -10   93.60    5.50
   2  -2 -10   88.22    5.25
   2   2 -10   83.29    5.07
   2   2 -10   96.15    5.22
   3  14   5    0.32    1.68
   3  14   5    0.34    2.06
   3 -14   5    0.81    1.48
   3 -14   5    0.29    1.29
  -3 -14  -5    0.54    1.33
   3 -14   5    0.07    1.22
   3 -14   5    0.62    2.22
   3 -14   5    0.03    1.76
   3  15  -5    4.74    1.65
   3 -15  -5    2.04    1.97
   3 -15  -5    1.45    1.86
   3  15  -5    1.57    2.36
   3 -15  -5    0.04    2.20
   3 -15  -5    1.24    1.47
   3 -15  -5    2.24    1.85
   1  18  -7   -0.19    1.60
   1 -18  -7    1.92    2.26
   1 -18  -7    1.18    1.56
   1 -18  -7    0.58    1.57
  -1 -18   7    1.02    1.56
   4   6  -5    4.58    2.74
   4  -6  -5   -2.87    2.63
   4  -6  -5    4.74    1.58
   4  -6  -5    6.48    2.90
   4   6  -5    2.99    2.31
   4   6  -5    2.53    1.76
   4  -6  -5    3.42    1.45
   4  -6  -5    5.25    2.06
   4  -6  -5    4.15    2.50
   4   6  -5    3.75    4.61
   2 -19  -5  206.78    9.95
   2 -19  -5  175.10    9.70
  -2 -19   5  182.07    9.64
   2 -19  -5  187.28    9.83
   2  19  -5  185.22    9.53
   2 -19  -5  205.00   10.26
   2  19  -5  199.05   10.32
  -3   0  -8    1.00    1.08
   3   0   8    0.70    1.42
   3   0   8   -0.43    1.57
   3   0   8    0.97    2.02
   3   0   8    0.65    1.56
   1  -9 -10    2.16    1.07
   1  -9 -10    0.18    1.77
   1   9 -10    1.55    2.50
  -1  -9  10    2.30    1.45
   1  -9 -10    0.53    2.08
   1  -9 -10    1.08    1.59
  -1 -21   5    5.21    1.66
   1 -21  -5    2.79    1.09
   1 -21  -5    4.24    1.70
   1 -21  -5    4.84    1.86
   1 -21  -5    4.40    1.35
   1 -21  -5    4.66    2.40
   3  -1   8   12.46    2.16
   3   1   8   15.22    2.33
   3  -1   8   13.43    1.78
  -3  -1  -8   14.98    1.44
  -3   1  -8   13.94    1.40
   3   1   8   11.67    1.74
   3  -1   8   10.74    1.89
   3  -1   8    9.61    1.91
   3   1   8   16.05    1.85
   1 -22  -4   23.59    2.10
  -1 -22   4   25.91    2.25
   1 -22  -4   25.62    2.46
   1 -22  -4   19.76    1.76
   1 -22  -4   21.79    3.06
   1 -22  -4   23.21    2.48
   4   0   5   -2.10    1.77
   4   0   5    0.52    1.42
   4   0   5    0.45    1.75
   4   0   5   -2.17    2.02
   0 -10 -10   80.98    4.35
   0 -10  10   81.26    4.48
   0 -10 -10   67.44    4.28
   0 -10 -10   84.21    4.93
   2  -8   9    4.22    1.30
   2  -8   9    3.79    1.25
  -2   8  -9    2.98    1.28
   2   8   9    2.83    2.11
  -2  -8  -9    4.66    1.40
   3 -12   6   12.57    1.69
   3  12   6   12.40    2.23
   3 -12   6   10.44    1.59
  -3 -12  -6   10.60    1.61
   3  12   6   14.40    2.07
   3 -12   6   10.80    2.02
   3 -12   6   15.31    2.50
   2  17   6   10.81    2.57
   2  17   6   14.18    1.93
   2 -17   6   13.25    1.57
   2 -17   6   13.61    2.46
   2 -17   6   10.61    1.41
  -2 -17  -6   12.26    1.79
   2 -17   6    9.43    1.73
   4  -1   5    0.62    1.72
   4   1   5    1.53    1.84
   4   1   5    0.02    2.02
   4   1   5    1.88    1.45
   4  -1   5    0.10    1.80
   4  -1   5    0.16    2.04
   4   1   5    2.70    1.73
   4  -1   5    0.48    1.40
   4  -1   5    2.56    1.83
  -1 -16   8   82.35    5.12
   1  16  -8   98.45    5.46
   1 -16  -8   96.86    5.71
   1 -16  -8   90.52    5.24
   1 -16  -8  105.78    5.43
   1  16  -8   97.59    5.80
   4   7   4    1.13    1.61
   4   7   4   -0.26    1.42
   4  -7   4   -1.14    1.48
   4  -7   4    1.49    1.89
   4  -7   4   -1.59    2.26
   4   7   4    0.77    1.99
   4  -7   4   -0.03    1.99
   4   7   4    0.75    1.81
   4  -7   4   -1.68    1.96
   2  -3 -10    7.71    1.99
   2  -3 -10    1.71    2.12
   2   3 -10    0.54    2.37
   2   3 -10    2.81    1.92
   2   3 -10    2.76    1.94
   2  -3 -10    2.75    2.11
   2   3 -10    2.23    1.94
   2  -3 -10    3.29    2.01
   3   7  -8    6.38    1.99
   3   7  -8    8.82    2.02
   3  -7  -8    6.75    2.07
   3  -7  -8   12.30    2.50
   3  -7  -8   14.75    2.61
   3   7  -8   11.24    1.84
   3   7  -8   10.61    2.04
   3  -7  -8    9.55    2.57
   3  -7  -8   12.58    2.05
   3   7  -8   11.00    2.46
  -1   8 -10    1.86    1.40
  -1  -8 -10    2.59    1.34
   1  -8  10    1.74    1.42
   2 -10  -9   67.27    4.24
   2 -10  -9   71.56    4.16
   2 -10  -9   64.31    4.01
   2  10  -9   65.53    4.44
   2  10  -9   61.30    4.07
   2 -10  -9   57.54    4.24
  -2 -10   9   62.70    3.68
   2  10  -9   64.30    3.87
   2 -15   7   -0.58    1.17
   2  15   7    2.10    1.94
   2 -15   7   -0.29    1.13
  -2 -15  -7    0.03    1.39
   2  15   7   -1.70    2.01
   3 -18  -2   25.53    2.94
   3 -18  -2   22.96    2.54
   3  18  -2   26.32    2.48
  -3 -18   2   24.38    2.09
   3  18  -2   30.82    2.72
   3 -18  -2   27.80    2.69
   3 -18  -2   25.88    2.43
   3  18  -2   18.12    2.77
   3 -18  -2   27.24    2.56
   0   0 -11    1.16    2.10
   0   0 -11    1.20    1.28
   0   0  11    0.10    1.37
   0   0 -11    0.91    1.73
   0   0 -11    1.53    1.51
   4   9  -4  119.62    7.02
   4  -9  -4  112.59    6.49
   4  -9  -4  139.06    6.86
   4  -9  -4  134.20    6.99
   4  -9  -4  125.13    7.03
   4  -9  -4  137.45    7.36
   4   9  -4  139.28    6.79
   4   9  -4  112.07    7.52
   4   9  -4  126.22    6.91
   3  -2   8   98.56    5.23
   3   2   8   76.61    4.98
   3  -2   8   85.15    5.10
   3  -2   8  105.25    5.13
   3   2   8   96.44    5.10
  -3   2  -8  100.52    4.90
  -3  -2  -8   94.56    4.93
   3   2   8   93.16    5.31
   3  -2   8   70.25    5.08
   4 -12   0    2.14    1.69
   4  12   0    4.19    2.38
   4 -12   0    4.54    2.69
   4 -12   0    0.35    1.45
   4 -12   0    1.94    1.75
   4 -12   0   -0.98    1.78
   4 -12   0    1.13    1.29
   4  12   0    1.52    1.79
   4  12   0    1.94    1.88
   4  12   0    1.62    1.73
   0   1 -11    1.40    1.73
   0   1 -11    4.01    1.42
   0  -1 -11    2.16    1.86
   0  -1  11    1.58    1.35
   0   1 -11    2.28    2.25
   0  -1 -11    2.14    2.10
   0   1 -11    1.51    1.60
   0  -1 -11    2.12    1.50
   0  -1  11    1.67    1.60
   0  -1 -11    4.57    1.33
   0   1 -11    2.98    1.32
   3  11  -7   28.95    2.88
   3 -11  -7   25.91    2.80
   3 -11  -7   27.93    3.02
   3  11  -7   29.88    2.91
   3 -11  -7   25.74    3.01
   3 -11  -7   26.04    2.35
   3 -11  -7   31.73    2.54
   3  11  -7   27.10    2.44
   3 -11  -7   29.71    2.65
   3  -9   7   16.41    2.71
   3  -9   7   25.27    2.03
   3   9   7   19.10    2.52
   3  -9   7   22.54    2.07
   3  -9   7   23.21    2.40
   3   9   7   14.05    2.13
  -3  -9  -7   22.83    1.97
   0 -14  -9    1.53    1.30
   0 -14  -9    1.00    1.88
   0 -14  -9    0.63    1.78
   0 -14   9    0.66    1.50
   0 -14  -9   -0.30    1.17
   4  -2   5    0.02    2.00
   4   2   5    0.32    1.43
   4   2   5   -0.91    1.98
   4  -2   5   -0.28    1.39
   4  -2   5   -0.75    1.86
   4   2   5   -0.62    1.85
   4  -2   5    0.29    1.79
   4   2   5    2.32    1.75
   4  -2   5    0.25    1.75
   4 -12  -1   26.07    2.44
   4 -12  -1   20.13    2.18
   4  12  -1   22.49    2.46
   4  12  -1   16.61    2.92
   4  12  -1   30.41    2.51
   4  12  -1   29.92    2.64
   4 -12  -1   20.49    2.51
   4 -12  -1   24.57    2.45
   4 -12  -1   19.61    1.95
   4 -12  -1   24.46    3.30
   2  21  -3   -0.18    1.26
   2 -21  -3    0.66    1.73
   2  21  -3    0.61    1.89
   2 -21  -3    0.19    1.74
   2 -21  -3    1.60    2.15
   2  21  -3    2.09    2.21
  -2 -21   3   -0.31    1.53
   2 -21  -3   -0.03    1.79
   3  17   3   15.85    1.83
   3 -17   3   17.14    2.10
  -3 -17  -3   21.06    1.93
   3  17   3   14.02    2.95
   3 -17   3   22.72    2.66
   3 -17   3   20.91    2.04
   3 -17   3   15.23    1.72
   3 -17   3   21.10    2.05
   2  16  -7  101.11    4.66
   2 -16  -7   92.23    4.99
   2 -16  -7   78.27    5.34
   2  16  -7   82.95    4.85
   2 -16  -7   81.11    4.61
  -2 -16   7   79.79    4.66
   2  16  -7   88.63    5.43
   2 -16  -7   92.90    5.02
   0   2 -11   58.33    4.00
   0  -2 -11   61.91    4.22
   0   2 -11   66.49    4.61
   0  -2  11   76.07    3.93
   0  -2 -11   72.51    3.85
   0   2 -11   69.45    3.86
   0  -2 -11   60.63    3.91
   0  -2 -11   61.98    4.17
   4 -11   2   33.78    2.49
   4  11   2   25.06    2.54
   4  11   2   30.58    3.24
   4 -11   2   31.17    2.33
   4  11   2   28.87    2.48
   4 -11   2   24.94    2.16
   4 -11   2   30.74    3.27
   4 -11   2   30.60    2.51
   4  11   2   20.01    2.11
   1 -22   4   55.30    3.31
   1 -22   4   53.36    3.22
  -1 -22  -4   56.04    3.49
   1 -22   4   53.11    3.88
   3  -3   8   -1.17    1.93
   3   3   8    1.01    1.40
  -3  -3  -8    2.22    1.19
   3  -3   8    2.78    1.93
   3  -3   8    0.97    1.50
   3  -3   8   -1.40    1.65
  -3   3  -8    1.60    1.05
   3   3   8   -2.02    2.15
   2   4 -10    1.47    1.97
   2  -4 -10    0.19    1.82
   2  -4 -10    0.57    2.10
   2   4 -10    0.73    2.33
   2  -4 -10    1.35    2.01
   2   4 -10   -3.00    1.94
   2   4 -10   -0.60    1.82
   2  -4 -10    0.84    2.05
   4   3   5   55.85    3.65
   4  -3   5   61.38    3.65
   4   3   5   53.10    3.50
   4  -3   5   54.68    3.34
   4  -3   5   54.32    3.60
   4   3   5   59.81    3.64
   4   3   5   50.53    3.34
   4  -3   5   56.31    3.63
  -1 -21  -5   42.80    2.82
   1 -21   5   38.41    2.66
   1 -21   5   33.84    2.72
   1 -21   5   37.08    3.16
   2  22   0    1.24    1.56
   2 -22   0    2.30    1.56
   2  22   0    1.07    1.48
  -2 -22   0    0.88    1.47
   2 -22   0    2.38    1.76
   2 -22   0    0.61    1.72
   2 -22   0    0.72    2.02
  -2 -22   0    3.61    1.51
   0 -24  -2   25.01    2.39
   0 -24   2   22.18    2.11
   0 -24  -2   21.92    2.09
   0 -24  -2   24.11    2.08
   0 -24   2   20.83    1.88
   0 -24   2   26.06    2.66
   3 -16   4   15.41    1.87
   3 -16   4   16.51    1.68
  -3 -16  -4   16.92    1.87
   3 -16   4   23.51    2.67
   3 -16   4   17.20    1.95
   3 -16   4   21.56    2.14
   3  16   4   13.78    2.82
   4  -7  -5   70.70    4.50
   4   7  -5   64.40    4.32
   4  -7  -5   63.21    4.42
   4   7  -5   49.31    3.86
   4   7  -5   66.79    5.89
   4   7  -5   61.59    4.46
   4   7  -5   72.35    4.04
   4  -7  -5   52.63    3.67
   4  -7  -5   66.11    4.12
   4  -7  -5   62.01    3.67
   4  -7  -5   66.70    4.74
   2 -20   4   34.22    3.01
   2 -20   4   35.94    2.99
   2 -20   4   40.99    2.73
  -2 -20  -4   44.68    2.85
   2 -20   4   37.71    2.41
  -1 -18  -7    1.66    1.57
  -1 -18  -7    1.75    1.52
   1 -18   7    1.35    1.43
   1 -18   7    1.42    1.65
   1 -20  -6    3.10    2.44
  -1 -20   6   -0.54    1.50
   1 -20  -6    1.14    1.56
   4   0  -6   35.93    2.82
   4   0  -6   38.11    3.44
   4   0  -6   35.94    2.48
   4   0  -6   39.85    3.06
   4   0  -6   40.38    3.77
   0  -3 -11    8.18    1.38
   0  -3  11    8.93    1.57
   0   3 -11    5.46    2.62
   0   3 -11    6.21    1.50
   0  -3 -11    6.06    1.48
   0   3 -11    7.66    1.68
   0  -3 -11    3.30    2.02
   0  -3 -11    7.25    1.94
   1 -23  -3   42.19    2.94
   1 -23  -3   56.84    3.61
  -1 -23   3   56.02    3.78
   1 -23  -3   57.42    3.58
   1 -23  -3   45.03    3.28
   1 -23  -3   47.84    3.88
  -1 -23   3   54.44    3.40
   4  12   1   55.34    3.66
   4  12   1   46.13    3.41
   4 -12   1   52.75    3.48
   4  12   1   56.08    4.32
   4 -12   1   54.63    3.47
   4 -12   1   60.30    3.62
   4  12   1   54.45    3.74
   4 -12   1   59.00    3.46
   4  -1  -6   10.90    2.06
   4  -1  -6   14.61    2.72
   4  -1  -6    9.48    1.86
   4   1  -6    6.29    1.81
   4  -1  -6   11.37    2.94
   4  -1  -6    8.62    1.42
   4   1  -6    4.85    2.82
   4   1  -6    6.11    2.09
   4   1  -6    5.11    2.64
  -2 -22   1   79.87    4.90
   2 -22  -1   76.00    5.14
   2  22  -1   68.13    5.07
   2 -22  -1   58.08    4.91
   2  22  -1   73.20    4.84
   2 -22  -1   73.24    4.99
   2 -22  -1   86.69    5.28
  -2 -22   1   66.72    4.87
   4  11  -3    2.61    3.26
   4  11  -3    2.86    2.12
   4 -11  -3    3.41    1.95
   4  11  -3    4.48    2.11
   4  11  -3    2.51    1.98
   4 -11  -3    3.43    1.29
   4  11  -3    3.55    1.81
   4 -11  -3    4.42    2.35
   4 -11  -3    6.10    2.16
   4 -11  -3    2.61    1.39
   4 -11  -3    3.02    2.80
   2 -18  -6   28.65    3.24
  -2 -18   6   31.23    2.38
   2  18  -6   33.62    3.33
   2  18  -6   31.72    2.17
   2 -18  -6   31.98    2.61
   2 -18  -6   28.56    2.34
   2 -18  -6   32.12    2.74
   2 -18  -6   20.93    2.52
   0 -19   7    9.31    2.25
   0 -19  -7    8.94    1.64
   0  19  -7    6.47    1.92
   0 -19  -7    8.10    1.54
   0 -19   7    9.03    1.73
   0 -19  -7    6.51    1.35
  -1 -13  -9    0.02    1.37
   1 -13   9    0.81    1.37
  -1 -13  -9    2.21    2.02
   3  18   2    1.29    1.54
   3 -18   2    2.51    2.38
  -3 -18  -2    0.77    1.40
   3 -18   2    0.85    1.79
   3 -18   2    0.28    1.58
   3  18   2    0.63    2.37
   3 -18   2    0.65    1.32
   0 -17  -8    2.54    2.20
   0 -17   8    0.46    1.98
   0 -17   8    0.67    1.54
   0 -17  -8   -0.06    1.13
   0 -17  -8    1.25    1.70
   0 -17  -8    0.46    1.29
   4 -10   3    3.27    1.73
   4  10   3    3.02    1.61
   4 -10   3    5.04    1.78
   4  10   3   -0.04    2.24
   4 -10   3   -2.01    2.43
   4  10   3    4.04    1.63
   4 -10   3    4.04    1.48
   4  10   3    2.42    1.66
  -3  -4  -8   31.98    2.23
  -3   4  -8   40.21    2.17
   3  -4   8   30.71    2.69
   3   4   8   23.66    2.27
   3  -4   8   27.90    2.56
   3  -4   8   38.02    2.50
   3  -4   8   23.70    2.77
   3   4   8   35.04    2.92
   4  12  -2    1.54    1.91
   4  12  -2    1.27    2.44
   4 -12  -2    0.26    1.36
   4 -12  -2   -1.53    2.77
   4 -12  -2    0.03    1.98
   4  12  -2    0.84    1.76
   4 -12  -2    2.08    1.91
   4  12  -2    0.35    2.10
   4 -12  -2    0.89    1.29
   4 -12  -2    2.02    1.83
   4  -2  -6   11.21    3.02
   4   2  -6    7.19    2.72
   4  -2  -6    8.25    2.57
   4  -2  -6    8.15    1.98
   4   2  -6    7.96    1.87
   4   2  -6   11.24    2.13
   4  -2  -6    6.60    1.78
   4   2  -6    2.24    3.05
   4  -2  -6    7.20    1.41
  -2 -21  -3    9.28    1.68
   2 -21   3    8.19    1.60
   2 -21   3    2.38    1.84
   2 -21   3    3.29    1.99
   4   4   5    1.69    1.60
   4  -4   5    0.67    1.84
   4  -4   5    0.04    1.97
   4   4   5    0.19    1.43
   4  -4   5    1.36    1.44
   4   4   5   -0.13    2.06
   4  -4   5   -1.56    1.99
   4  -4   5    0.24    1.85
   4   4   5   -1.99    1.89
  -2 -22  -1    6.29    1.66
   2 -22   1    3.31    1.82
   2 -22   1    4.60    1.68
   2 -22   1    4.91    2.06
   4  -8   4    0.41    2.22
   4   8   4   -0.28    2.05
   4   8   4   -0.37    1.84
   4  -8   4    0.54    1.41
   4  -8   4   -0.82    1.81
   4  -8   4    1.62    1.76
   4   8   4    0.62    1.60
   3  -8  -8   24.13    2.43
   3  -8  -8   24.52    2.43
   3   8  -8   19.86    2.82
   3  -8  -8   19.19    2.85
   3   8  -8   23.29    2.58
   3   8  -8   23.65    2.26
   3  -8  -8   24.62    2.83
   3   8  -8   24.87    2.38
   3  -8  -8   24.31    2.84
   1 -16   8    5.58    1.46
  -1 -16  -8    5.46    1.91
  -1 -16  -8    4.16    1.52
   1 -16   8    3.07    1.49
   2  14  -8   21.81    2.70
   2 -14  -8   18.59    2.04
   2 -14  -8   21.72    2.53
   2 -14  -8   23.29    2.34
   2 -14  -8   21.61    2.74
   2  14  -8   21.57    2.43
   2  14  -8   20.55    1.95
   2 -14  -8   14.44    1.78
  -2 -14   8   17.64    1.88
   2  -5 -10    6.73    1.93
   2   5 -10    5.88    2.43
   2   5 -10    8.13    2.01
   2   5 -10    4.83    1.81
   2  -5 -10    5.65    2.12
   2  -5 -10    7.44    2.12
   2  -5 -10    6.54    2.11
   1 -23   3    3.35    2.19
  -1 -23  -3    4.43    1.63
   1 -23   3    5.32    1.36
   1 -23   3    5.16    1.36
   2 -19   5   41.15    2.56
   2 -19   5   43.69    3.25
   2 -19   5   40.80    3.03
   2 -19   5   49.28    2.81
  -2 -19  -5   36.21    2.95
   2  -9   9    3.91    1.29
  -2  -9  -9    3.57    1.42
   2   9   9    4.58    2.03
  -2   9  -9    5.77    1.34
   2  -9   9    5.42    1.21
  -1 -24   0    1.57    1.27
   1 -24   0    0.26    1.14
   1 -24   0    0.75    1.59
   1 -24   0    2.33    1.71
  -1 -24   0    0.86    1.54
  -1 -24   0    1.40    1.58
   1 -24   0    2.21    1.98
   3  14  -6    7.72    1.77
   3 -14  -6   12.03    1.92
   3 -14  -6   11.39    2.03
   3 -14  -6   12.16    2.54
   3  14  -6    9.26    2.51
   3 -14  -6    5.97    1.44
   3  14  -6    8.97    2.03
   3 -14  -6   11.83    2.25
   0  -4 -11   77.68    4.76
   0  -4  11   96.41    4.84
   0   4 -11   88.22    4.79
   0   4 -11   74.92    4.76
   0  -4 -11   98.60    4.76
   0  -4 -11   73.42    4.88
   0  -4 -11   83.85    5.18
  -1 -10  10    8.57    1.60
   1 -10 -10   13.70    2.29
   1 -10 -10    7.96    1.91
   1  10 -10   13.87    2.63
   1 -10 -10    8.83    1.27
   1 -10 -10   11.96    1.78
  -1  -9 -10   34.29    2.31
  -1  -9 -10   27.95    2.92
   1  -9  10   27.12    2.33
   0 -22   5   11.05    1.73
   0 -22   5   10.64    2.45
   0 -22  -5    8.70    1.55
   0 -22  -5    5.62    1.47
   3 -17  -4   10.44    2.36
   3  17  -4   12.37    2.49
  -3 -17   4   11.57    1.50
   3 -17  -4   12.80    1.84
   3 -17  -4   13.33    2.16
   3 -17  -4   13.35    2.01
   3 -17  -4   11.13    2.04
   3  17  -4   17.09    1.94
   1   0 -11   79.33    4.56
   1   0 -11   79.74    4.77
   1   0 -11   71.82    4.07
   1   0 -11   75.93    4.51
   1   0 -11   73.12    4.40
   4  -3  -6   43.93    2.95
   4   3  -6   37.82    3.46
   4   3  -6   40.73    3.26
   4  -3  -6   40.76    3.15
   4   3  -6   39.58    3.76
   4  -3  -6   38.31    2.75
   4  -3  -6   47.70    3.94
   4   3  -6   48.07    3.12
   4  -3  -6   41.69    3.65
   1   1 -11   23.66    2.41
   1  -1 -11   21.77    2.64
   1   1 -11   22.02    1.77
   1  -1 -11   20.85    2.42
   1   1 -11   20.76    2.27
   1   1 -11   22.16    2.72
   1  -1 -11   24.08    1.76
  -1  -1  11   19.96    1.85
   1  -1 -11   18.38    2.25
   1   1 -11   19.09    2.25
   1  -1 -11   24.21    2.41
   0 -23   4  248.01   11.67
   0 -23   4  260.97   11.99
   0 -23  -4  244.29   11.59
   2  13   8    0.59    1.57
   2 -13   8   -0.51    1.09
   2  13   8   -0.98    1.99
   2 -13   8   -0.71    1.19
  -2 -13  -8    1.40    1.48
   0 -11  10   41.65    2.81
   0 -11 -10   36.18    2.59
   0 -11 -10   39.85    2.66
   0 -11 -10   47.07    3.32
   4  10  -4   -2.60    4.48
   4  10  -4    1.11    1.78
   4 -10  -4    0.23    1.40
   4  10  -4    0.33    1.77
   4 -10  -4   -0.41    2.38
   4 -10  -4   -1.15    1.90
   4  10  -4   -0.47    2.23
   4 -10  -4   -3.00    2.31
   4  10  -4   -0.87    2.12
   1 -24  -1   12.81    2.06
   1 -24  -1   12.24    1.48
   1 -24  -1   15.35    2.17
   1 -24  -1   11.88    2.14
  -1 -24   1   12.82    2.09
  -1 -24   1   13.76    1.87
   1 -20   6   23.84    2.47
  -1 -20  -6   30.43    2.30
   1 -20   6   23.70    2.11
   1 -20   6   24.52    2.54
   3 -10   7  131.34    6.64
   3 -10   7  107.56    6.08
  -3 -10  -7  101.36    6.11
   3 -10   7  129.37    6.44
   3  10   7  132.93    6.41
   3  10   7  101.87    6.34
   3 -10   7  120.25    6.17
   2  11  -9   25.65    2.57
  -2 -11   9   22.51    2.01
   2 -11  -9   30.68    2.59
   2 -11  -9   30.05    2.90
   2 -11  -9   27.38    2.49
   2  11  -9   27.51    2.31
   2  11  -9   26.92    2.94
   2 -11  -9   28.62    2.76
   1 -14  -9   10.75    2.04
   1 -14  -9    8.32    1.57
   1 -14  -9   11.69    2.41
  -1 -14   9   13.87    2.00
   1  14  -9    9.82    2.36
   1 -14  -9    9.29    2.33
   3 -18  -3   17.17    2.33
   3 -18  -3   13.85    1.96
   3 -18  -3   14.40    2.53
   3  18  -3   12.55    2.18
   3 -18  -3   16.74    2.41
   3  18  -3   15.15    2.39
  -3 -18   3   12.32    1.60
   3  18  -3   14.51    1.92
   3 -18  -3   15.40    2.17
  -1 -24  -1   17.03    1.84
   1 -24   1   15.08    1.66
   1 -24   1   20.88    2.48
   1 -24   1   20.97    2.02
  -1 -24  -1   17.79    1.84
  -1 -24  -1   19.44    2.04
   1  24   1   14.24    1.86
   1   2 -11   43.92    3.29
   1   2 -11   50.09    3.85
  -1  -2  11   47.74    3.05
   1  -2 -11   49.84    3.57
   1  -2 -11   53.85    3.43
   1  -2 -11   53.70    2.95
   1  -2 -11   50.78    3.41
   1   2 -11   47.93    2.99
   1  -2 -11   53.91    3.58
   1   2 -11   55.58    3.59
   1   2 -11   51.32    3.34
   3  -5   8   15.96    2.02
   3  -5   8   16.64    1.77
   3  -5   8   10.69    2.25
  -3  -5  -8   12.47    1.53
   3   5   8   17.42    2.41
   3  -5   8   14.62    2.03
  -3   5  -8   17.34    1.42
   3   5   8   11.66    1.56
   2  22  -2    1.66    1.31
   2 -22  -2    1.68    1.86
   2 -22  -2    0.57    1.72
   2  22  -2   -0.28    2.07
   2 -22  -2    1.16    1.85
   2 -22  -2    0.60    1.81
   2  22  -2    0.73    1.94
  -2 -22   2    1.42    1.50
   4  -5   5   15.52    2.22
   4  -5   5   17.35    2.26
   4  -5   5   17.79    2.20
   4   5   5   13.43    1.94
   4  -5   5   16.20    2.12
   4   5   5   17.54    2.19
   4  -5   5   14.41    1.77
   4   5   5   19.29    2.30
   3 -19   0    4.43    1.74
   3  19   0    2.26    1.52
  -3 -19   0    1.94    1.35
   3  19   0    7.66    2.63
   3  19   0    4.36    1.89
   3 -19   0    4.53    1.53
   3 -19   0    5.19    2.35
   3 -19   0    3.28    1.79
   3 -19   0    5.49    2.04
   3 -15   5    1.47    1.41
   3  15   5    0.15    2.12
  -3 -15  -5    2.39    1.38
   3 -15   5   -0.60    1.28
   3 -15   5    1.26    1.67
   3  15   5    0.63    1.57
   3 -15   5    0.72    2.24
   4  -8  -5    1.68    1.42
   4   8  -5    0.82    1.73
   4  -8  -5    0.04    2.38
   4   8  -5    0.28    2.18
   4  -8  -5   -2.92    2.45
   4   8  -5   -0.79    1.69
   4   8  -5    0.08    4.90
   4  -8  -5    1.16    1.35
   4  -8  -5   -3.31    2.85
   4   8  -5    0.93    2.31
   3 -13   6   57.92    3.52
   3  13   6   57.14    3.40
   3  13   6   45.40    3.62
   3 -13   6   60.60    3.83
   3 -13   6   42.42    3.00
  -3 -13  -6   47.80    3.14
   3 -13   6   48.80    3.16
   3 -12  -7    8.38    1.94
   3  12  -7    6.91    1.68
   3  12  -7    6.96    2.12
   3 -12  -7    8.11    2.38
   3 -12  -7    3.35    2.33
   3 -12  -7    9.21    1.86
   3 -12  -7    8.37    1.58
   3  12  -7    5.36    2.33
   4   4  -6   -0.52    1.70
   4  -4  -6    1.53    1.64
   4  -4  -6    0.81    1.33
   4   4  -6   -2.34    2.07
   4   4  -6    1.58    2.59
   4  -4  -6    0.55    2.46
   4  -4  -6   -0.05    1.84
   4   4  -6    1.62    2.35
   4  -4  -6   -0.22    2.49
   4  -4  -6    0.57    2.79
   3 -19  -1   -0.62    1.81
   3 -19  -1    1.16    1.93
   3  19  -1    0.04    2.21
   3  19  -1   -1.60    1.78
  -3 -19   1   -0.06    1.29
   3  19  -1    0.57    1.67
   3 -19  -1    1.16    1.55
   3 -19  -1    1.24    2.29
   3 -19  -1    0.13    1.63
   0  -5  11   -0.57    1.36
   0  -5 -11    2.60    1.22
   0   5 -11    0.38    1.29
   0  -5 -11    0.21    1.24
   0  -5 -11    1.12    1.50
   0  -5 -11    0.33    2.03
   3 -16  -5    4.58    1.47
   3 -16  -5    6.59    1.97
   3 -16  -5    4.26    2.33
   3  16  -5    3.29    1.56
   3 -16  -5    6.39    1.95
   3  16  -5    3.77    2.38
  -3 -16   5    3.20    1.16
   3 -16  -5    2.81    1.85
   4  13   0   23.59    2.41
   4 -13   0   29.04    2.55
   4 -13   0   30.48    2.38
   4 -13   0   34.78    3.43
   4  13   0   30.99    2.71
   4 -13   0   30.62    2.56
   4  13   0   33.27    2.69
   4  13   0   28.41    3.13
   4 -13   0   27.12    2.47
   2   6 -10    1.59    0.99
   2  -6 -10   -1.04    2.23
   2  -6 -10    0.34    2.00
   2   6 -10   -1.87    1.89
   2  -6 -10   -1.79    1.68
   2   6 -10   -1.19    2.35
   2  -6 -10    1.06    1.85
   2  -6 -10    0.43    1.78
   1  -3 -11   65.99    4.32
   1  -3 -11   71.32    4.26
   1  -3 -11   69.20    4.44
   1   3 -11   64.72    4.14
   1  -3 -11   79.01    3.88
   1   3 -11   69.34    3.93
   1   3 -11   65.19    4.12
   1  -3 -11   75.55    4.30
   1   3 -11   68.28    4.73
  -1  -3  11   70.91    3.98
   4  13  -1   -0.03    1.73
   4 -13  -1    1.02    1.75
   4  13  -1   -0.85    2.10
   4  13  -1    2.13    2.25
   4 -13  -1    1.28    1.79
   4 -13  -1    1.46    2.83
   4 -13  -1    0.74    1.22
   4 -13  -1    1.35    1.82
   4  13  -1    1.92    1.75
   4 -13  -1    0.34    1.42
   0 -21  -6    9.24    1.53
   0 -21  -6    5.62    1.36
   0 -21   6    7.38    2.28
   0 -21   6    7.10    1.67
   4 -12   2    1.58    1.69
   4 -12   2   -2.12    2.63
   4  12   2    0.28    2.42
   4 -12   2    1.64    1.35
   4 -12   2    0.25    1.57
   4  12   2    0.91    1.73
   4  12   2    0.05    1.65
   4 -12   2    1.17    1.46
   2   0  10   19.05    1.90
   2   0  10   18.15    2.37
   2  -1  10  145.01    7.46
   2   1  10  151.59    7.54
  -2  -1 -10  146.60    7.35
  -2   1 -10  147.74    7.37
   2  -1  10  127.31    7.29
   3   0  -9  183.55   10.05
   3   0  -9  190.88   10.27
   3   0  -9  208.39   10.04
   3   0  -9  188.61    9.92
  -2 -22  -2   10.87    1.75
   2 -22   2   12.36    2.23
   2 -22   2   10.79    1.79
   2 -22   2    9.08    1.99
   0 -15  -9    5.14    1.91
   0 -15  -9    2.87    1.32
   0 -15  -9    2.14    1.80
   0 -15   9    2.70    1.52
   0 -15   9    4.06    1.71
   2 -16   7   94.43    4.84
   2 -16   7   85.51    4.83
  -2 -16  -7   99.62    5.10
   2  16   7   98.09    5.14
   3 -19   1    9.80    1.80
   3 -19   1    6.33    2.34
   3 -19   1    9.03    2.05
  -3 -19  -1   10.22    1.57
   3  19   1    6.73    1.44
   3  19   1    7.54    2.62
   3   1  -9    7.57    2.36
   3  -1  -9   18.14    2.25
   3   1  -9    5.26    2.62
   3   1  -9    9.72    2.08
   3  -1  -9   28.33    2.36
   3  -1  -9   19.38    2.66
   3   1  -9    4.50    2.02
   3  -1  -9   16.55    2.87
   4  -9   4   25.14    2.78
   4  -9   4   23.58    2.15
   4   9   4   28.25    2.84
   4  -9   4   24.20    2.39
   4   9   4   23.70    2.26
   4   9   4   26.95    2.33
   4  -9   4   27.59    2.41
   3   9  -8    1.09    1.70
   3  -9  -8    2.14    1.83
   3  -9  -8    3.66    2.25
   3  -9  -8    1.90    2.20
   3  -9  -8    0.13    2.27
   3   9  -8    0.90    1.92
   3   9  -8    1.40    1.56
   3  -9  -8    1.25    1.81
   3   9  -8    1.19    2.21
   0 -24  -3    2.12    1.28
   0 -24   3    2.57    1.49
   0 -24  -3    3.68    1.41
   0 -24   3    2.74    2.14
   1  17  -8   24.12    2.37
   1 -17  -8   19.68    2.11
   1 -17  -8   23.03    2.80
   1  17  -8   21.68    2.80
   1 -17  -8   24.48    2.30
  -1 -17   8   18.88    2.08
   1 -19  -7    5.82    1.66
  -1 -19   7    6.27    1.68
   1 -19  -7    3.72    2.28
   1 -19  -7    6.12    1.66
   3   6   8    2.31    1.22
  -3  -6  -8    3.73    1.26
   3  -6   8    1.37    2.01
   3  -6   8    2.46    1.72
   3  -6   8    2.15    1.40
   3   6   8    1.50    2.06
  -3   6  -8    1.89    0.98
   3  -6   8    1.89    1.75
   2   2  10    4.76    2.04
  -2   2 -10    4.94    1.32
   2  -2  10    6.66    1.89
   2  -2  10    5.36    1.41
  -2  -2 -10    3.78    1.25
   1 -24  -2   17.96    2.51
   1 -24  -2   19.41    2.20
   1 -24  -2   16.05    2.05
  -1 -24   2   15.08    2.29
  -1 -24   2   18.54    2.08
   1 -24  -2   15.89    1.55
   1 -24  -2   20.13    2.33
   4  12  -3   15.64    2.22
   4 -12  -3   13.81    1.61
   4  12  -3   10.90    4.22
   4 -12  -3   12.30    2.97
   4 -12  -3   20.16    2.28
   4  12  -3   14.23    2.37
   4 -12  -3   12.66    1.73
   4  12  -3   15.41    2.15
   4 -12  -3   17.38    2.43
   4  12  -3    9.09    2.27
   4 -12  -3   14.62    2.41
   4 -11   3   49.66    3.11
   4 -11   3   48.45    3.02
   4 -11   3   32.72    2.56
   4  11   3   40.66    2.84
   4  11   3   46.81    2.97
   4 -11   3   43.32    3.58
   4  11   3   33.68    3.01
   4  11   3   47.37    3.65
   4 -11   3   43.43    2.95
   1  -4 -11   -0.74    2.04
   1   4 -11    0.22    1.25
   1  -4 -11    0.94    1.62
   1   4 -11    1.03    1.55
   1   4 -11    1.48    1.59
   1  -4 -11    3.26    1.79
   1  -4 -11    1.40    1.00
   1  -4 -11    0.51    1.76
  -1  -4  11    0.29    1.31
   1   4 -11   -1.39    2.40
   2  18   6    5.55    2.34
   2 -18   6    8.95    1.24
  -2 -18  -6    8.83    1.66
   2  18   6    7.58    1.73
   2 -18   6    8.49    2.22
   2 -18   6    9.17    1.37
   2 -18   6    8.07    1.65
   4   6   5   -0.03    1.83
   4  -6   5    1.34    1.72
   4  -6   5    0.22    1.98
   4   6   5   -0.75    1.22
   4   6   5    0.27    1.92
   4  -6   5    0.88    1.81
   4   6   5   -1.94    1.60
   4  -6   5    1.34    1.80
   4  -6   5    2.28    1.46
   4  -5  -6    3.54    1.69
   4   5  -6    4.54    1.75
   4  -5  -6    5.20    2.81
   4   5  -6    2.93    2.60
   4  -5  -6    6.72    2.45
   4   5  -6    4.40    2.12
   4  -5  -6    4.66    1.95
   4  -5  -6    5.13    1.40
   4  -5  -6    3.66    2.46
   3  -2  -9   33.31    3.22
   3   2  -9   35.29    2.98
   3   2  -9   32.92    3.42
   3  -2  -9   32.74    3.29
   3  -2  -9   29.17    2.85
   3   2  -9   29.75    2.75
   3   2  -9   41.56    2.87
   3  -2  -9   38.32    2.87
   2 -21  -4   17.06    2.63
   2  21  -4   12.35    2.67
   2 -21  -4   16.94    2.09
  -2 -21   4   16.03    1.89
   2 -21  -4   17.19    2.33
   2 -21  -4   15.01    2.11
  -2  10  -9    1.15    1.20
   2  10   9    2.18    2.02
  -2 -10  -9    0.11    1.30
   2 -10   9    1.29    1.19
   2 -10   9    0.98    1.09
   4  13   1   25.14    2.58
   4  13   1   26.03    3.11
   4  13   1   28.39    2.47
   4 -13   1   32.34    2.22
   4 -13   1   29.21    2.30
   4 -13   1   26.29    2.31
   4 -13   1   28.39    2.44
   4 -13   1   32.18    3.35
   4  13   1   21.93    2.16
   2 -20  -5   17.42    2.02
   2 -20  -5   16.96    2.74
   2 -20  -5   20.26    2.25
   2  20  -5   16.47    2.83
  -2 -20   5   16.90    1.92
   2 -20  -5   23.15    2.40
  -1 -10 -10   -0.31    2.11
  -1 -10 -10   -0.73    1.34
   1 -10  10   -2.60    1.40
   0  -6 -11    3.68    1.29
   0  -6  11    4.92    1.45
   0   6 -11    4.81    1.39
   0  -6 -11    4.43    2.09
   0  -6 -11    4.79    1.27
   0 -25   0    0.28    1.71
   0 -25   0   -0.78    1.37
   0 -25   0   -0.34    1.42
  -3 -19   2    2.46    1.32
   3 -19  -2    0.88    2.25
   3 -19  -2    1.60    1.92
   3  19  -2    2.51    1.66
   3  19  -2    1.63    1.90
   3  19  -2    0.31    2.07
   3 -19  -2    1.28    1.77
   3 -19  -2    2.03    1.66
   3 -19  -2    2.29    1.85
   2 -17  -7   27.63    3.09
   2 -17  -7   28.09    2.32
   2 -17  -7   29.92    2.68
   2 -17  -7   33.16    2.64
   2 -17  -7   26.42    2.14
  -2 -17   7   25.15    2.23
   2  17  -7   29.92    3.20
   2  17  -7   27.20    2.38
   1 -24   2    8.62    2.17
   1 -24   2    9.68    1.40
   1 -24   2   10.70    1.63
  -1 -24  -2    8.98    1.75
   1  11 -10    0.48    2.22
   1 -11 -10    0.03    1.99
  -1 -11  10   -0.84    1.37
   1 -11 -10    0.31    1.51
   1 -11 -10    0.63    1.57
   1 -11 -10   -0.40    1.05
  -2   3 -10   24.68    1.91
   2  -3  10   20.81    2.20
   2  -3  10   20.85    1.95
   2   3  10   24.19    2.46
  -2  -3 -10   23.16    1.93
   4 -13  -2    5.31    1.46
   4  13  -2    7.91    3.29
   4 -13  -2    6.40    1.44
   4 -13  -2    7.68    1.94
   4 -13  -2    4.49    1.99
   4 -13  -2    6.10    2.77
   4  13  -2    3.53    2.12
   4  13  -2    5.96    1.77
   4  13  -2    4.46    1.97
  -1 -14  -9   25.31    2.61
  -1 -14  -9   19.94    2.20
  -1 -14  -9   25.85    2.12
   1 -14   9   22.13    2.03
   3 -18   3   34.39    2.66
   3 -18   3   42.75    3.19
  -3 -18  -3   33.10    2.48
   3 -18   3   31.55    2.67
   3 -18   3   32.33    2.50
   3  18   3   37.58    3.46
  -1   0 -11   80.52    4.33
  -1   0 -11   79.43    4.68
   1   0  11   72.75    4.43
   3  -3  -9   87.85    5.71
   3  -3  -9   96.97    5.45
   3  -3  -9   96.28    5.85
   3  -3  -9  106.17    5.56
   3   3  -9  103.36    5.51
   3   3  -9   97.65    5.89
   3   3  -9   91.50    5.49
   3   3  -9   86.96    5.41
   2   7 -10   -2.28    1.10
   2  -7 -10   -3.13    1.77
   2   7 -10   -0.25    2.32
   2  -7 -10    0.69    1.81
   2  -7 -10   -0.62    1.84
   2   7 -10   -2.40    1.79
  -2  -7  10   -1.70    1.16
   2  -7 -10   -1.60    2.16
   2  -7 -10    0.36    1.74
  -1  -1 -11   41.33    3.39
   1   1  11   40.84    3.21
  -1   1 -11   38.45    3.24
   1  -1  11   41.56    3.11
   4  -9  -5    7.12    1.52
   4  -9  -5    9.63    2.49
   4  -9  -5    9.37    2.04
   4   9  -5    3.49    5.19
   4  -9  -5    9.75    2.60
   4  -9  -5    8.00    3.03
   4   9  -5    4.37    2.19
   4   9  -5    4.94    2.29
   4   9  -5    8.01    1.92
   1 -22  -5    7.87    1.84
   1 -22  -5    9.05    1.97
   1 -22  -5    7.17    1.35
  -1 -22   5   11.53    1.78
   1 -22  -5    6.86    2.47
   4  11  -4   -0.22    1.78
   4  11  -4   -1.25    2.10
   4  11  -4   -0.03    2.16
   4 -11  -4    1.49    2.25
   4  11  -4    2.02    1.74
   4 -11  -4   -0.78    2.23
   4  11  -4    0.38    4.99
   4 -11  -4    0.59    1.33
   4 -11  -4   -1.07    1.90
   3 -17   4    5.51    1.65
   3 -17   4    6.57    1.55
   3  17   4    4.38    2.38
   3 -17   4    5.07    2.21
   3 -17   4    5.07    1.59
  -3 -17  -4    6.58    1.44
   0 -25  -1   32.46    2.56
   0 -25   1   34.66    2.39
   0 -25  -1   34.23    2.60
   0 -25  -1   34.11    2.45
   0 -25   1   31.63    2.82
   0 -25   1   31.92    2.48
   3  11   7   20.34    2.24
   3 -11   7   21.84    1.92
   3 -11   7   20.13    2.33
   3 -11   7   19.13    1.86
   3  11   7   23.33    2.45
  -3 -11  -7   18.07    1.88
   3 -11   7   25.11    2.70
   0 -12 -10   14.59    1.61
   0 -12 -10   11.12    1.44
   0 -12 -10   12.89    2.23
   0 -12  10   13.58    1.76
   1  -5 -11   10.56    1.90
   1  -5 -11    9.48    2.20
   1   5 -11    9.74    1.49
   1  -5 -11   12.76    1.84
   1  -5 -11   14.70    1.32
   1  -5 -11   10.17    1.97
   1   5 -11   11.91    1.78
   1   5 -11   11.18    2.59
  -1  -5  11   12.78    1.59
  -1 -23   4    0.23    2.25
   1 -23  -4   -0.03    1.61
   1 -23  -4    0.65    1.02
   1 -23  -4    1.26    1.37
   1 -23  -4   -0.76    2.28
   1 -23  -4    0.05    1.71
  -1 -23   4    0.99    1.63
   1   2  11   93.40    5.52
  -1   2 -11  108.70    5.46
  -1   2 -11   97.27    5.57
   1  -2  11  107.59    5.48
   1  -2  11   83.43    5.37
  -1  -2 -11  100.69    5.76
  -1  -2 -11  106.98    5.41
   2  12  -9   -0.19    2.15
   2 -12  -9    1.99    1.68
   2 -12  -9    3.51    1.79
  -2 -12   9    1.74    1.26
   2 -12  -9    2.66    2.07
   2  12  -9    2.62    1.76
   2  12  -9    2.62    1.53
   2 -12  -9    5.60    2.02
   2 -15  -8  176.92    8.43
   2 -15  -8  141.64    7.97
   2  15  -8  164.83    8.32
   2  15  -8  137.01    8.47
  -2 -15   8  140.91    7.98
   2  15  -8  176.14    8.01
   2 -15  -8  162.94    8.32
   2 -15  -8  155.31    8.53
  -2  -4 -10    6.45    1.33
   2  -4  10    5.25    1.49
  -2   4 -10    7.42    1.38
   2  -4  10    5.98    1.72
   3 -15  -6    3.00    1.86
   3  15  -6    5.12    1.84
   3 -15  -6    2.86    1.34
   3  15  -6    3.91    1.57
   3 -15  -6    3.89    1.73
   3  15  -6    5.38    2.39
   3 -15  -6    4.76    2.02
   3 -15  -6    2.85    2.30
   4   6  -6    1.20    1.68
   4  -6  -6    1.54    2.48
   4  -6  -6    1.52    1.82
   4  -6  -6    2.41    2.44
   4   6  -6    3.00    2.07
   4  -6  -6    2.61    2.74
   4   6  -6    1.66    2.50
   4  -6  -6    1.19    1.54
   4  -6  -6    2.99    1.41
  -2 -22   3    1.29    1.50
   2 -22  -3    4.08    1.96
   2  22  -3    4.01    2.13
   2 -22  -3    4.14    2.13
   2 -22  -3    2.87    1.75
   2 -22  -3    3.39    1.76
   3  -7   8   11.86    2.20
  -3   7  -8    8.95    1.16
   3  -7   8   10.07    1.91
   3   7   8   11.20    2.18
   3  -7   8    8.79    1.79
  -3  -7  -8    6.60    1.41
   3  -7   8    9.16    1.50
   1 -19   7    3.53    1.43
   1 -19   7    0.91    1.64
  -1 -19  -7    1.16    1.50
  -1 -19  -7    2.44    1.47
  -2 -14  -8   53.63    3.72
   2 -14   8   56.20    3.48
   2 -14   8   49.44    3.54
   3   4  -9   -0.85    1.98
   3   4  -9   -0.43    1.42
   3  -4  -9   -3.54    2.53
   3  -4  -9   -1.05    2.27
   3  -4  -9    1.27    2.41
   3  -4  -9    1.66    1.80
   3   4  -9    0.12    1.70
   3   4  -9   -1.17    2.43
   3  -4  -9    1.67    1.97
   3   4  -9   -1.49    2.07
   4  -7   5    8.89    1.56
   4   7   5    9.83    1.70
   4   7   5    6.18    1.99
   4  -7   5    8.06    1.92
   4  -7   5    9.00    1.96
   4   7   5    2.07    1.39
   4   7   5    5.01    1.93
   4  -7   5    5.98    2.05
   0 -18   8   23.59    2.17
   0  18  -8   26.35    2.60
   0 -18  -8   22.98    2.17
   0 -18  -8   24.59    2.73
   0 -18  -8   21.62    1.96
   0 -18   8   22.42    2.44
  -1 -17  -8   42.56    3.01
  -1 -17  -8   40.12    2.82
   1 -17   8   34.57    2.73
   1 -17   8   45.40    2.80
   2 -19  -6    3.83    1.64
   2 -19  -6    6.50    2.43
   2 -19  -6    5.75    1.73
   2  19  -6    6.91    2.51
   2 -19  -6    6.55    1.89
  -2 -19   6    4.36    1.51
   2 -19  -6    4.17    1.47
  -1  -3 -11   65.15    4.45
   1  -3  11   61.12    4.05
  -1   3 -11   66.67    4.19
  -1  -3 -11   78.72    4.09
  -1   3 -11   85.61    4.19
   1   3  11   68.68    4.30
   1  -3  11   82.25    4.19
  -1   3 -11   60.66    4.01
  -1  -3 -11   66.12    4.30
  -3 -19  -2    3.49    1.41
   3 -19   2    2.10    2.28
   3  19   2    0.28    2.45
   3 -19   2    2.45    1.81
   3 -19   2    1.85    1.61
   0   7 -11   -4.32    1.45
   0  -7 -11    0.62    1.20
   0  -7 -11   -0.80    1.20
   0  -7 -11   -0.33    2.07
   0  -7  11   -0.44    1.40
   3 -13  -7    5.47    1.42
   3 -13  -7    5.35    1.68
   3  13  -7    4.58    2.24
   3  13  -7    5.61    1.64
   3 -13  -7    3.20    2.28
   3  13  -7    7.34    2.04
   3 -13  -7    1.66    2.28
   3 -13  -7    6.85    1.94
   2 -21   4   30.56    2.67
   2 -21   4   31.74    2.30
   2 -21   4   29.82    2.58
  -2 -21  -4   28.71    2.44
   1  15  -9   33.28    2.95
  -1 -15   9   34.92    2.61
   1  15  -9   32.55    3.06
   1 -15  -9   37.95    2.98
   1 -15  -9   35.97    3.01
   1 -15  -9   36.43    2.64
   1 -21  -6   69.02    5.08
  -1 -21   6   73.75    4.48
   1 -21  -6   87.06    4.75
   1 -21  -6   79.68    4.55
  -1 -22  -5    9.25    1.63
   1 -22   5    7.30    1.48
   1 -22   5    5.37    2.06
   1 -22   5    6.75    1.58
   0 -20  -7    4.30    1.49
   0 -20   7    3.85    1.55
   0 -20   7    3.10    2.07
   0 -20  -7    4.39    1.36
   4 -10   4    3.44    1.74
   4 -10   4    3.91    1.67
   4  10   4    6.10    1.68
   4 -10   4    4.42    1.45
   4  10   4    3.70    1.53
   4  10   4    0.03    2.07
   4 -10   4    3.26    2.37
  -1 -23  -4    1.17    1.50
   1 -23   4    4.11    1.31
   1 -23   4    4.20    1.19
   1 -23   4    2.71    2.02
   3  10  -8   60.71    4.12
   3  10  -8   58.18    4.24
   3 -10  -8   55.98    4.01
   3  10  -8   64.75    3.90
   3 -10  -8   71.59    4.06
   3  10  -8   54.82    3.78
   3 -10  -8   62.06    4.27
   3 -10  -8   61.70    3.78
   3 -10  -8   65.12    4.28
   3 -14   6   -0.29    1.32
  -3 -14  -6   -0.44    1.31
   3  14   6   -0.25    1.81
   3 -14   6    0.49    1.73
   3  14   6   -0.03    1.88
   3 -14   6    0.39    2.22
   2 -23   0  142.02    6.67
  -2 -23   0  100.95    6.10
   2  23   0   99.42    6.90
   2 -23   0  104.27    6.22
   2  23   0  108.44    6.31
  -2 -23   0  145.22    6.45
   2  23   0  103.71    6.29
   2 -23   0  125.34    6.47
   3 -18  -4   12.12    2.07
   3 -18  -4   15.60    2.07
   3 -18  -4   14.04    1.91
   3  18  -4   14.09    2.48
  -3 -18   4   11.20    1.50
   3  18  -4   15.21    1.88
   3 -18  -4   14.15    2.46
   4 -14   0    6.09    1.75
   4 -14   0    8.18    1.84
   4  14   0    5.60    2.41
   4  14   0    7.45    1.62
   4  14   0    7.94    2.07
   4 -14   0    8.57    1.66
   4 -14   0    9.01    2.87
   4  14   0    4.93    1.93
   4 -13   2   -0.04    1.35
   4 -13   2   -0.04    1.47
   4 -13   2    0.83    1.62
   4  13   2   -0.31    1.67
   4 -13   2    1.01    1.45
   4  13   2    1.19    2.23
   4  13   2    0.93    1.55
   4 -13   2    0.83    2.66
   1  -6 -11   36.05    2.67
   1   6 -11   33.41    3.36
   1   6 -11   32.75    2.43
   1  -6 -11   38.17    2.74
   1  -6 -11   40.31    2.30
   1  -6 -11   37.82    2.84
  -1  -6  11   32.53    2.46
   1  -6 -11   36.93    3.11
   1   6 -11   37.45    2.58
   2  -5  10   11.17    1.45
   2  -5  10   10.52    1.61
  -2   5 -10   11.67    1.42
  -2  -5 -10    9.74    1.46
   2   5  10    6.63    2.07
   2  -5  10    8.33    1.67
   4 -14  -1    6.06    2.99
   4 -14  -1    8.86    1.79
   4 -14  -1    6.71    1.56
   4 -14  -1    5.38    1.39
   4  14  -1    5.67    2.73
   4 -14  -1    9.40    1.91
   4  14  -1    7.60    1.81
   4  14  -1    8.56    1.97
   4  14  -1    5.43    2.25
   2   8 -10   74.12    4.33
   2  -8 -10   83.14    4.55
  -2  -8  10   68.79    3.99
   2  -8 -10   79.47    4.48
   2   8 -10   67.62    3.96
   2  -8 -10   77.82    4.76
   2   8 -10   75.87    4.90
   2  -8 -10   66.88    4.33
   2  -8 -10   76.62    4.40
   3 -16   5   11.20    1.60
   3  16   5   15.89    1.81
   3 -16   5   15.75    1.81
  -3 -16  -5   17.42    1.76
   3  16   5   12.07    2.48
   3 -16   5   17.84    2.53
   3 -16   5   18.14    2.09
  -2 -20  -5    2.29    1.51
   2 -20   5    2.53    1.91
   2 -20   5    2.49    1.66
   2 -20   5    1.83    1.23
   2 -20   5    1.50    1.02
   1  -4  11   27.77    2.06
  -1  -4 -11   17.80    2.10
   1   4  11   20.15    2.39
  -1   4 -11   24.31    1.99
   1  -4  11   17.56    1.79
  -1  -4 -11   23.53    1.92
  -1  -4 -11   19.33    2.52
  -2 -23   1    0.60    1.59
   2  23  -1    0.95    2.42
   2 -23  -1    3.00    1.76
  -2 -23   1    1.46    1.51
   2 -23  -1    2.71    1.90
   2  23  -1    2.03    1.32
   2 -23  -1    2.52    1.95
   2  23  -1    2.00    1.68
   2 -23  -1   -0.16    1.69
   4   0   6   22.64    2.48
   4   0   6   22.15    2.26
   4   0   6   24.84    2.10
   3   5  -9    2.61    1.79
   3   5  -9    1.26    1.50
   3   5  -9    2.93    1.97
   3  -5  -9    3.17    2.43
   3  -5  -9    4.22    1.86
   3   5  -9    5.72    1.99
   3  -5  -9    6.55    2.30
   3  -5  -9    2.30    2.13
   3   5  -9    1.89    2.46
   3  -5  -9    5.38    2.40
   2 -11   9   29.09    2.06
   2  11   9   32.28    2.77
   2 -11   9   32.24    2.23
  -2  11  -9   30.23    2.26
  -2 -11  -9   32.87    2.38
   4   1   6  103.73    5.56
   4   1   6   92.20    5.40
   4  -1   6  103.41    5.35
   4  -1   6   95.67    5.48
   4   1   6  106.53    5.38
   4   1   6   95.31    5.45
   4  -1   6  106.60    5.56
   0 -25   2    2.14    2.03
   0 -25  -2    1.38    1.38
   0 -25  -2    2.64    1.65
   0 -25  -2    3.69    1.38
   0 -25   2    3.64    1.43
   4 -12   3    9.82    1.42
   4  12   3    9.15    1.92
   4 -12   3   13.61    1.88
   4  12   3   12.07    1.76
   4  12   3   13.36    2.57
   4 -12   3   12.89    2.77
   4 -12   3   13.39    1.83
   4  12   3    7.87    1.57
   4 -12   3   10.90    1.74
   1 -24  -3   32.51    2.53
  -1 -24   3   38.21    3.03
  -1 -24   3   37.75    2.70
   1 -24  -3   35.51    2.85
   1 -24  -3   27.11    2.17
   1 -24  -3   38.18    2.85
   1 -24  -3   34.50    3.15
  -1 -11 -10    1.38    1.35
   1 -11  10    2.16    1.40
  -1 -11 -10    0.94    1.98
  -2 -22  -3    6.46    1.61
   2 -22   3    7.78    2.07
   2 -22   3    6.69    1.60
   2 -22   3    6.84    1.88
   4  -7  -6    0.87    1.54
   4   7  -6   -1.60    1.82
   4  -7  -6   -1.98    2.38
   4  -7  -6    2.90    2.86
   4   7  -6   -1.70    2.10
   4  -7  -6    0.70    2.42
   4  -7  -6   -1.53    1.42
   4 -13  -3   13.51    2.92
   4 -13  -3   10.77    1.56
   4  13  -3   11.08    2.30
   4 -13  -3   11.18    1.67
   4  13  -3   16.03    4.74
   4 -13  -3   12.73    2.36
   4  13  -3   11.24    1.92
   4  13  -3    7.50    2.07
   4 -13  -3   15.95    2.14
   3 -19  -3    1.70    1.58
   3 -19  -3    1.40    1.83
   3  19  -3    1.81    1.79
   3 -19  -3    1.69    1.84
   3 -19  -3    2.89    2.05
   3  19  -3    3.78    1.57
   3  19  -3    1.98    1.98
  -3 -19   3    1.69    1.24
   3 -19  -3   -1.07    2.20
  -3 -17   5   11.35    1.44
   3  17  -5   16.27    1.84
   3 -17  -5   15.62    2.09
   3 -17  -5   13.46    1.80
   3 -17  -5   14.13    2.06
   3  17  -5   11.78    2.56
   3 -17  -5   13.47    2.08
   3 -17  -5    8.34    2.37
   2  23   1    1.57    1.50
   2 -23   1    0.88    1.56
   2 -23   1   -0.71    1.60
   2 -23   1   -0.03    2.04
  -2 -23  -1    1.01    1.48
   4   2   6    2.77    1.47
   4   2   6    5.41    1.62
   4  -2   6    2.21    1.66
   4   2   6    5.23    2.12
   4  -2   6    5.62    2.06
   4  -2   6    6.01    1.86
   4   2   6    2.38    1.65
   4  -2   6    7.56    1.59
   4  10  -5   29.29    2.94
   4 -10  -5   28.98    2.99
   4  10  -5   25.07    2.90
   4 -10  -5   29.92    3.31
   4 -10  -5   32.65    2.72
   4  10  -5   26.70    2.46
   4 -10  -5   27.35    3.05
   4 -10  -5   24.51    2.22
   1 -12 -10    1.73    1.60
   1 -12 -10   -1.11    1.45
  -1 -12  10   -1.01    1.37
   1  12 -10   -0.10    2.24
   1 -12 -10    0.56    1.91
   1 -12 -10   -0.06    0.98
   3   8   8   23.55    2.54
   3  -8   8   21.79    2.10
  -3   8  -8   24.04    1.70
   3  -8   8   24.12    2.60
  -3  -8  -8   21.40    1.94
   3  -8   8   29.48    2.07
   3  -8   8   25.87    2.36
   1 -21   6    8.80    1.80
   1 -21   6   10.87    2.07
   1 -21   6   11.28    1.58
  -1 -21  -6   11.84    1.71
   4 -14   1   16.40    1.63
   4 -14   1   15.05    1.87
   4 -14   1   13.60    1.82
   4  14   1   14.65    2.02
   4 -14   1   19.15    2.96
   4  14   1   15.73    1.68
   4 -14   1   13.89    1.94
   4  14   1   12.27    2.68
   4  14   1   13.60    2.06
   0 -16  -9   20.50    1.83
   0 -16  -9   19.14    2.34
   0 -16   9   20.46    2.16
   0 -16   9   20.91    2.06
   0 -16  -9   22.00    2.30
   4   8   5   21.79    2.25
   4  -8   5   21.15    1.96
   4   8   5   20.84    2.45
   4  -8   5   20.82    2.19
   4  -8   5   17.49    2.44
   4   8   5   19.94    2.00
   4  -8   5   24.59    2.36
   3 -20   0   28.04    2.61
   3 -20   0   27.98    2.38
   3  20   0   26.44    3.00
   3  20   0   25.38    2.53
   3  20   0   21.68    2.17
   3 -20   0   25.20    2.74
  -3 -20   0   23.91    2.07
   1 -24   3   32.77    2.33
   1 -24   3   40.27    3.02
  -1 -24  -3   32.52    2.58
   1 -24   3   31.68    2.30
   0 -23  -5    1.03    1.32
   0 -23   5    0.09    1.48
   0 -23  -5    1.24    1.25
   0 -23   5   -0.63    2.04
   4 -12  -4   50.21    3.41
   4  12  -4   27.56    2.91
   4 -12  -4   32.38    2.50
   4  12  -4   43.26    3.12
   4 -12  -4   48.36    3.18
   4  12  -4   47.41    3.46
   4 -12  -4   44.79    3.45
   4  12  -4   44.80    5.71
   4 -12  -4   38.66    2.84
   4  12  -4   37.90    3.16
  -1  -5 -11    5.24    2.13
   1  -5  11    9.01    1.55
  -1  -5 -11    9.54    1.42
   1   5  11    8.00    2.04
  -1   5 -11    6.96    1.50
   2 -17   7    1.57    1.08
   2 -17   7    3.74    2.22
   2  17   7    1.61    1.92
   2 -17   7    0.39    1.27
  -2 -17  -7    0.20    1.45
   2 -17   7    0.06    1.06
   2  17   7    1.53    1.76
   4  -3   6    7.92    1.87
   4   3   6   14.58    2.24
   4  -3   6    8.67    2.10
   4  -3   6   12.37    1.70
   4   3   6   10.70    1.79
   4   3   6   13.26    1.67
   4  -3   6   12.44    1.94
   4   3   6   10.78    1.78
   3 -20  -1    8.12    1.76
   3  20  -1   10.46    1.86
   3 -20  -1   11.62    2.03
   3  20  -1   11.93    1.92
  -3 -20   1   11.15    1.54
   3 -20  -1   10.20    1.83
   3 -20  -1    9.29    2.38
   3 -20  -1   11.74    2.11
   3  20  -1    4.76    2.36
   0  -8 -11   98.97    5.50
   0  -8 -11   99.19    5.00
   0  -8  11  101.21    5.12
   0   8 -11   86.75    5.06
   1 -25   0   76.87    4.27
  -1 -25   0   79.37    4.25
  -1 -25   0   69.26    4.09
  -1 -25   0   70.74    3.92
   1 -25   0   76.73    4.39
   1  25   0   67.37    4.21
   1 -25   0   58.64    3.88
   1 -25   0   63.63    4.16
   2  -6  10   21.43    1.80
  -2  -6 -10   19.69    1.81
   2   6  10   20.35    2.39
   2  -6  10   16.87    1.92
  -2   6 -10   20.84    1.78
   2  -6  10   14.08    1.82
   3 -12   7    1.50    1.30
   3  12   7   -0.13    1.64
   3 -12   7    3.36    1.77
   3 -12   7    1.29    1.24
   3 -12   7    4.44    2.24
  -3 -12  -7    0.92    1.28
   3  12   7    1.37    1.81
   4  14  -2    0.18    3.91
   4  14  -2    0.03    1.88
   4 -14  -2    0.65    1.33
   4 -14  -2   -0.03    1.75
   4 -14  -2    0.59    1.37
   4  14  -2    0.03    1.80
   4  14  -2    0.83    1.71
   4 -14  -2   -0.08    1.91
   4 -14  -2    1.10    2.70
   0 -24   4    6.89    1.59
   0 -24  -4    6.36    1.45
   0 -24   4   11.00    2.31
   3  -6  -9   33.51    3.42
   3   6  -9   37.76    2.91
   3  -6  -9   41.47    3.25
   3  -6  -9   47.92    3.06
   3   6  -9   42.79    3.07
   3  -6  -9   39.52    3.13
   3   6  -9   46.21    3.05
   3  -6  -9   40.09    3.31
   3   6  -9   35.12    3.49
   3   6  -9   33.36    2.77
   1  -7 -11   39.44    2.74
   1  -7 -11   39.49    2.82
   1   7 -11   40.16    2.55
  -1  -7  11   33.91    2.51
   1  -7 -11   36.76    3.13
   1   7 -11   38.66    3.44
   1   7 -11   32.30    2.45
   1  -7 -11   38.89    2.32
   0 -13 -10   10.19    1.53
   0 -13  10   10.53    1.69
   0 -13 -10   14.36    2.16
   1  18  -8   21.07    2.73
   1  18  -8   19.38    2.14
   1 -18  -8   20.60    2.17
  -1 -18   8   20.14    2.04
   1 -18  -8   19.45    2.03
   1 -18  -8   19.34    2.63
   1 -15   9    3.38    1.39
  -1 -15  -9    3.65    1.93
  -1 -15  -9    4.42    1.65
  -1 -15  -9    2.69    1.40
   2  23  -2   28.23    2.66
   2  23  -2   22.70    2.00
   2 -23  -2   26.09    2.61
  -2 -23   2   29.47    2.32
  -2 -23   2   24.23    2.50
   2 -23  -2   28.80    2.55
   2 -23  -2   29.53    2.60
   2 -23  -2   30.00    2.74
   4   0  -7   -0.29    2.36
   4   0  -7    0.84    2.72
   4   0  -7   -2.10    1.73
   4   0  -7    1.81    1.76
   4   0  -7    0.38    1.23
   1 -25  -1    8.98    1.84
  -1 -25   1    9.11    1.81
   1 -25  -1    7.41    1.27
  -1 -25   1   10.84    1.78
   1 -25  -1    4.41    1.95
   1 -25  -1    9.81    1.83
   2 -13  -9   33.42    2.84
   2 -13  -9   31.60    2.92
   2  13  -9   27.54    2.85
   2 -13  -9   31.78    2.65
   2 -13  -9   26.13    2.39
   2  13  -9   27.99    2.71
  -2 -13   9   27.08    2.11
   2  13  -9   32.41    2.32
   4   1  -7    2.80    2.74
   4   1  -7    2.08    1.80
   4   1  -7    5.10    1.30
   4  -1  -7   -0.25    1.65
   4  -1  -7    0.57    1.28
   4  -1  -7    0.14    2.78
   4  -1  -7    0.67    2.40
   4  -1  -7    1.66    1.76
   4   1  -7    4.39    2.39
   4   1  -7    4.32    1.79
   3 -20   1    9.52    1.79
  -3 -20  -1    8.34    1.52
   3  20   1    9.63    1.95
   3  20   1    9.34    2.57
   3 -20   1    9.96    2.33
   3 -20   1   11.02    2.05
  -1 -25  -1    2.75    1.34
  -1 -25  -1    4.54    1.53
   1 -25   1    2.34    1.46
   1 -25   1    1.44    1.14
   1 -25   1    1.89    1.94
  -1 -25  -1    2.10    1.34
   2  19   6    0.76    1.50
  -2 -19  -6    0.07    1.45
   2  19   6   -1.03    2.17
   2 -19   6    0.83    1.10
   2 -19   6   -0.54    1.44
   2 -19   6    0.91    1.04
   2 -19   6   -0.08    1.92
   0 -22   6    3.72    2.10
   0 -22  -6    2.95    1.34
   0 -22   6    4.28    1.53
   4  -4   6    1.11    1.72
   4   4   6    1.54    1.47
   4  -4   6    2.43    1.40
   4   4   6    1.27    1.58
   4  -4   6   -1.45    1.71
   4  -4   6   -0.36    1.86
   4   4   6   -2.64    2.22
   4 -11   4    1.15    1.68
   4 -11   4    1.95    1.44
   4 -11   4    0.47    2.25
   4 -11   4    0.47    1.55
   4  11   4    2.48    1.45
   4  11   4    1.12    1.99
   4  11   4    0.53    1.52
   1 -20  -7   66.92    4.20
  -1 -20   7   81.53    4.37
   1 -20  -7   72.59    4.87
   1 -20  -7   74.53    4.37
   2  -9 -10    3.71    1.82
   2  -9 -10    5.38    2.26
   2  -9 -10    4.63    1.83
   2   9 -10    4.20    1.76
   2   9 -10    3.63    2.31
   2  -9 -10    6.06    1.82
  -2  -9  10    3.56    1.19
   3  11  -8   13.54    1.97
   3 -11  -8   15.18    2.14
   3 -11  -8   14.84    2.51
   3 -11  -8   12.70    1.78
   3  11  -8   11.73    2.35
   3  11  -8   12.34    1.73
   3  11  -8   14.75    2.27
   3 -11  -8   17.12    2.62
   2 -18  -7    1.53    2.24
   2 -18  -7    2.83    1.84
   2  18  -7    3.39    2.33
  -2 -18   7    1.93    1.35
   2 -18  -7    2.21    1.21
   2 -18  -7    2.64    1.73
   2 -18  -7    2.06    1.50
   4  -2  -7   33.76    2.78
   4   2  -7   45.22    3.76
   4  -2  -7   43.35    3.73
   4   2  -7   35.59    2.89
   4  -2  -7   35.48    3.39
   4   2  -7   37.54    3.23
   4  -2  -7   39.07    2.83
   4   2  -7   39.37    2.90
   4  -2  -7   35.97    2.57
   4   2  -7   36.87    2.45
   4  -8  -6   48.58    3.49
   4   8  -6   57.04    4.07
   4  -8  -6   55.77    4.40
   4  -8  -6   52.20    4.15
   4  -8  -6   52.73    3.46
   4   8  -6   62.80    3.80
   4   8  -6   52.83    4.11
  -1  -6 -11   38.94    3.32
   1  -6  11   45.16    2.81
  -1   6 -11   40.61    2.79
  -1  -6 -11   47.55    2.77
   1   6  11   40.20    3.14
   2 -15   8   51.79    2.92
   2 -15   8   48.48    3.03
  -2 -15  -8   53.09    3.27
   2 -16  -8    7.16    2.03
   2 -16  -8    4.79    1.41
   2  16  -8    7.61    1.88
   2 -16  -8    5.92    2.28
  -2 -16   8    4.11    1.44
   2 -16  -8    7.15    1.88
   2  16  -8    5.42    2.16
   2 -23   2    0.45    1.66
   2 -23   2    1.06    1.45
   2 -23   2   -1.19    1.99
  -2 -23  -2    1.86    1.52
   3 -18   4    7.87    1.60
   3  18   4    1.24    2.35
   3 -18   4    4.99    2.15
   3 -18   4    8.82    1.66
  -3 -18  -4    7.80    1.46
   3 -18   4    6.83    1.63
   3  19   3    7.35    2.52
   3 -19   3    5.05    1.56
   3 -19   3    6.13    1.77
   3 -19   3    6.06    2.25
   3 -19   3    5.58    1.43
  -3 -19  -3    5.43    1.47
   3  20  -2    6.37    1.85
  -3 -20   2    6.76    1.35
   3 -20  -2    9.62    2.11
   3 -20  -2    5.01    1.80
   3 -20  -2    7.07    1.86
   3  20  -2    3.36    2.05
   3 -20  -2    7.17    2.19
   3 -20  -2    7.48    1.74
   3  20  -2    7.78    1.69
   3 -16  -6   -0.27    1.67
   3 -16  -6    0.65    1.88
   3  16  -6   -1.46    1.50
   3 -16  -6    0.02    1.26
   3  16  -6   -1.17    2.16
   3 -16  -6    0.03    2.16
   3 -16  -6    0.48    1.64
   2 -21  -5   -0.03    1.72
   2 -21  -5   -0.10    1.59
  -2 -21   5   -0.26    1.36
   2 -21  -5    1.54    2.21
   2  21  -5    0.49    2.28
   2 -21  -5    0.88    1.43
   3  14  -7    6.70    1.69
   3 -14  -7    6.06    1.63
   3 -14  -7    7.10    1.89
   3 -14  -7    8.59    2.19
   3 -14  -7    5.47    2.41
   3  14  -7    8.05    2.02
   3 -14  -7    4.27    1.29
   3  14  -7    6.88    2.33
   2 -22  -4    1.74    1.81
  -2 -22   4    2.79    1.45
   2  22  -4    3.88    2.27
   2 -22  -4    5.91    2.19
   2 -22  -4    3.24    1.59
   2 -22  -4    3.95    1.73
   4   3  -7    0.98    1.76
   4  -3  -7    2.14    2.74
   4  -3  -7    1.78    1.68
   4   3  -7    1.16    2.64
   4  -3  -7    3.04    1.37
   4   3  -7    0.31    1.68
   4   3  -7   -1.14    2.22
   4  -3  -7    4.20    1.74
   4  -3  -7    1.37    2.45
   3  -9   8   18.01    1.71
   3   9   8   17.22    2.32
  -3  -9  -8   15.23    1.65
   3  -9   8   19.20    2.43
   3  -9   8   16.72    1.79
   3  -9   8   16.11    2.14
   2  -7  10    6.99    1.63
   2  -7  10    8.29    1.36
  -2   7 -10    6.56    1.34
  -2  -7 -10    7.69    1.41
   2   7  10    6.71    2.12
  -2  12  -9   10.74    1.49
   2  12   9   14.22    2.12
   2 -12   9    9.84    1.36
  -2 -12  -9   10.51    1.60
   4   9   5    0.13    1.75
   4  -9   5   -0.32    1.76
   4  -9   5   -0.03    1.99
   4   9   5   -0.36    1.86
   4   9   5    0.08    1.35
   4  -9   5    0.19    1.63
   4  -9   5   -0.69    1.42
   3   7  -9    7.56    1.67
   3  -7  -9    8.51    1.92
   3  -7  -9    0.03    2.54
   3  -7  -9    9.11    2.29
   3   7  -9    7.15    1.79
   3  -7  -9    6.34    2.15
   3  -7  -9    8.85    2.04
   3   7  -9    9.41    2.01
   3   7  -9    9.41    2.46
  -1 -12 -10    5.16    1.43
   1 -12  10    6.65    1.47
  -1 -12 -10    3.95    2.00
   3  15   6    0.32    1.87
   3 -15   6    1.17    2.16
   3 -15   6    1.09    1.30
  -3 -15  -6    0.83    1.31
   3 -15   6    1.37    1.63
   3  15   6    0.94    1.68
   4 -14   2   24.22    2.25
   4 -14   2   27.68    2.19
   4  14   2   19.59    2.37
   4 -14   2   30.15    3.24
   4 -14   2   21.24    2.05
   4  14   2   22.00    2.88
   4  14   2   24.25    2.22
   4 -14   2   28.42    2.12
   4   5   6    2.02    1.59
   4  -5   6    3.80    1.84
   4  -5   6    4.20    1.76
   4   5   6    2.69    2.54
   4  -5   6    5.30    1.45
   4   5   6    3.81    1.56
   4  -5   6    5.64    1.86
   4 -11  -5    2.13    2.27
   4  11  -5    3.63    1.75
   4  11  -5    4.44    2.14
   4 -11  -5    2.76    2.30
   4  11  -5    3.84    2.19
   4 -11  -5    2.84    1.94
   4 -11  -5    5.20    1.46
   0 -25  -3    2.36    1.64
   0 -25   3    3.99    1.49
   0 -25  -3    3.92    1.33
   0 -25   3    2.90    2.01
   1 -16  -9   12.44    1.83
   1  16  -9   16.02    2.24
   1 -16  -9   14.44    2.18
   1 -16  -9   14.91    2.10
   1  16  -9   15.61    2.36
  -1 -16   9   13.40    1.79
   0  -9 -11    0.57    1.97
   0   9 -11    0.65    1.31
   0  -9  11    0.41    1.39
   0   9 -11    0.37    2.62
   0  -9 -11    0.34    1.18
   0  -9 -11    1.73    1.12
   4  13   3   58.46    4.15
   4 -13   3   67.18    4.24
   4 -13   3   63.15    3.60
   4 -13   3   64.13    3.56
   4 -13   3   60.95    3.49
   4  13   3   57.96    3.50
   1  -8 -11   26.10    2.22
   1  -8 -11   24.08    2.36
   1   8 -11   24.22    2.00
   1   8 -11   31.24    3.08
  -1  -8  11   26.18    2.06
   1  -8 -11   24.06    1.79
   1  -8 -11   29.43    2.73
   4 -15   0    7.19    1.76
   4  15   0    7.33    2.36
   4  15   0    9.48    2.50
   4 -15   0    8.22    1.82
   4  15   0    6.83    1.63
   4 -15   0    9.28    1.65
   4 -15   0    9.35    2.73
   4  15   0    8.03    1.91
   3   0   9    1.92    1.89
  -3   0  -9    2.59    1.11
   3   0   9    2.41    1.39
   1 -25  -2    0.76    1.58
  -1 -25   2    0.03    1.50
   1 -25  -2    0.60    1.60
   1 -25  -2   -1.09    2.03
   1 -25  -2    0.36    0.99
  -1 -25   2    0.51    1.74
   1 -18   8   -1.24    1.42
   1 -18   8    1.26    1.30
  -1 -18  -8    2.22    1.64
  -1 -18  -8    1.69    1.41
   4 -15  -1    4.24    1.71
   4 -15  -1    4.75    1.85
   4  15  -1    4.29    1.73
   4  15  -1    5.47    1.81
   4  15  -1    6.47    3.26
   4 -15  -1    5.18    2.72
   4  15  -1    3.56    2.15
   4 -15  -1    5.30    1.49
  -3   1  -9   78.87    3.80
   3   1   9   74.76    4.19
   3  -1   9   76.85    4.15
   3  -1   9   66.34    3.93
   3   1   9   57.41    3.83
  -3  -1  -9   72.35    3.82
   3  -1   9   49.50    3.84
   0 -19  -8    2.46    1.29
   0 -19  -8   -1.32    1.54
   0  19  -8   -0.53    1.74
   0 -19   8    0.49    1.51
   0 -19  -8   -0.56    2.03
   0 -19   8    1.89    1.81
   4   4  -7   -1.32    1.79
   4  -4  -7   -0.30    1.60
   4  -4  -7    0.39    2.40
   4  -4  -7   -1.16    2.65
   4  -4  -7   -1.16    1.66
   4   4  -7    0.63    1.69
   4   4  -7   -1.77    2.56
   4  -4  -7   -0.77    1.39
   4   4  -7    1.37    2.08
   1 -20   7   34.34    2.83
   1 -20   7   35.97    2.73
   1 -20   7   38.67    2.53
  -1 -20  -7   37.11    2.60
  -1 -20  -7   31.83    2.46
   4  14  -3    0.05    1.77
   4 -14  -3    1.55    1.26
   4 -14  -3    0.67    2.55
   4 -14  -3    0.54    2.02
   4  14  -3    0.26    1.62
   4 -14  -3    1.72    1.92
   4 -14  -3    0.85    1.38
   4  14  -3    1.22    4.58
   4  14  -3    0.25    1.90
   1  13 -10   -0.03    2.08
   1 -13 -10   -0.45    1.94
   1 -13 -10   -0.48    1.55
  -1 -13  10   -0.35    1.34
   1 -13 -10    0.98    1.46
   1 -23  -5    0.45    2.21
   1 -23  -5    1.15    1.59
  -1 -23   5    1.42    2.28
  -1 -23   5    0.02    1.45
   1 -23  -5   -0.03    1.72
   1 -25   2    3.91    1.23
   1 -25   2    5.36    1.97
  -1 -25  -2    3.98    1.46
   1 -25   2    3.84    1.32
  -1 -25  -2    4.70    1.55
  -3  -2  -9    7.99    1.27
   3  -2   9    9.27    1.94
   3  -2   9    4.19    1.67
   3   2   9    8.86    2.11
   3  -2   9    8.16    1.62
  -3   2  -9    9.08    1.22
   3   2   9    7.11    1.37
   3  -2   9    9.08    1.54
  -2 -20   6    0.51    1.41
   2 -20  -6    1.29    1.30
   2  20  -6    0.67    2.31
   2 -20  -6    1.12    1.70
   2 -20  -6   -1.06    2.22
   2 -20  -6    1.45    1.59
   3 -17   5    5.15    1.67
   3 -17   5    3.43    1.28
  -3 -17  -5    5.15    1.42
   3 -17   5    8.32    2.17
   3 -17   5    4.60    1.45
   3  17   5    3.27    2.15
  -3 -20  -2    2.69    1.34
   3 -20   2   -0.52    2.27
   3 -20   2    0.15    1.71
   3  20   2   -0.04    2.36
   3 -20   2    2.47    1.55
  -1   7 -11    6.36    1.50
  -1  -7 -11    7.40    2.17
   1   7  11    7.09    2.07
   1  -7  11    9.71    1.53
  -1  -7 -11    7.95    1.45
   0 -26   0   86.06    4.69
   0 -26   0   87.63    4.67
   0 -26   0   77.07    4.78
   4 -13  -4    0.40    1.89
   4  13  -4   -3.31    5.03
   4 -13  -4    1.59    1.37
   4 -13  -4    2.51    2.09
   4 -13  -4    0.80    2.11
   4  13  -4    0.92    1.79
   4  13  -4   -3.93    2.18
   4  13  -4    2.86    1.67
   4 -13  -4   -0.23    1.13
   4  13  -4    1.14    1.59
   3 -19  -4   59.08    3.50
   3 -19  -4   53.15    3.69
   3  19  -4   51.17    3.73
  -3 -19   4   41.62    2.90
   3 -19  -4   44.59    3.21
   3  19  -4   48.09    3.20
   3 -19  -4   50.27    3.39
   1 -24  -4   27.31    2.95
   1 -24  -4   30.15    2.49
   1 -24  -4   28.63    2.60
  -1 -24   4   29.35    2.45
   1 -24  -4   24.21    2.07
  -1 -24   4   30.24    2.82
   3 -13   7    1.88    1.29
   3  13   7    2.67    1.86
  -3 -13  -7    1.42    1.31
   3 -13   7    1.16    1.72
   3 -13   7   -0.75    2.17
   3  13   7    0.60    1.60
   4  -9  -6   52.59    3.37
   4  -9  -6   51.31    3.51
   4   9  -6   60.42    3.75
   4   9  -6   57.15    4.04
   4  -9  -6   62.95    4.18
   4  -9  -6   62.29    4.39
   4   9  -6   63.76    4.10
   4  -9  -6   65.33    4.32
  -2 -23   3    0.44    1.43
   2 -23  -3   -0.69    1.58
   2 -23  -3   -0.06    2.00
   2 -23  -3    0.67    1.85
   2  23  -3    1.14    2.05
  -2 -23   3    2.04    2.02
   2 -23  -3   -0.74    1.68
  -2 -10  10   43.29    2.85
   2 -10 -10   48.19    3.34
   2  10 -10   49.63    3.76
   2 -10 -10   47.72    3.58
   2  10 -10   51.30    3.18
   2 -10 -10   48.06    3.24
   2 -10 -10   55.59    3.40
   2   0 -11    2.90    2.08
   2   0 -11    3.91    1.90
   2   0 -11    1.17    1.91
   2   0 -11    0.78    2.19
   4  15   1    0.46    1.68
   4  15   1    0.20    1.19
   4  15   1   -3.23    2.28
   4  15   1    0.60    1.83
   4 -15   1    0.02    1.39
   4 -15   1    1.28    1.57
   4 -15   1    1.40    1.48
   4 -15   1    0.79    2.67
   0 -21  -7   87.72    5.25
   0 -21   7   92.09    5.62
  -3  -3  -9    3.58    1.20
  -3   3  -9    4.75    1.04
   3  -3   9    3.68    1.69
   3  -3   9    3.54    1.37
   3  -3   9    5.35    1.52
   3   3   9    6.00    2.06
   3  -3   9    5.65    1.84
   3   3   9    2.07    1.20
   4   6   6    7.97    1.55
   4  -6   6   25.49    2.27
   4  -6   6   14.25    2.20
   4   6   6   17.11    2.08
   4  -6   6   24.45    1.93
   4   6   6   21.18    1.95
   4   6   6   14.18    2.69
   4  -6   6   24.11    2.17
   2  -1 -11   35.63    2.82
   2   1 -11   44.77    3.03
   2   1 -11   28.12    2.82
   2  -1 -11   35.40    3.04
   2  -1 -11   39.36    2.95
   2   1 -11   34.62    2.91
   2   1 -11   30.44    3.10
   2  -1 -11   32.02    3.06
   2 -22   4    1.65    1.78
  -2 -22  -4   -0.02    1.36
   2 -22   4   -0.30    1.67
   2 -22   4   -1.33    1.25
   0 -26   1    0.44    1.78
   0 -26  -1   -0.82    1.48
   0 -26   1    0.57    1.19
   0 -26  -1    0.55    1.40
   0 -26  -1    1.92    1.33
   0 -26   1    1.82    1.38
   2  -8  10    8.55    1.68
   2   8  10    7.29    2.14
  -2  -8 -10   10.02    1.52
  -2   8 -10   10.68    1.51
   1 -22  -6    7.22    1.69
  -1 -22   6    4.84    2.33
   1 -22  -6    7.71    1.84
  -1 -22   6    6.87    1.67
   1 -22  -6    8.41    2.44
   4   5  -7    2.54    1.79
   4  -5  -7    2.02    2.66
   4  -5  -7    0.22    1.30
   4  -5  -7   -0.20    1.70
   4   5  -7    0.17    1.87
   4   5  -7    1.24    2.56
   4  -5  -7    0.09    2.33
   3 -18  -5   61.81    3.79
   3  18  -5   62.62    3.52
   3 -18  -5   61.71    4.07
   3 -18  -5   54.76    3.48
   3  18  -5   60.52    4.09
   3 -18  -5   57.52    3.61
   3 -18  -5   51.81    3.44
   4 -15  -2   -0.23    1.78
   4  15  -2    0.54    1.75
   4  15  -2   -2.46    4.09
   4 -15  -2   -0.95    1.31
   4 -15  -2   -0.64    1.84
   4 -15  -2    1.38    1.32
   4  15  -2    0.16    1.96
   4 -15  -2    0.03    2.52
   4  15  -2    0.10    1.67
   0 -14  10   -0.47    1.40
   0  14 -10   -1.44    2.44
   0 -14 -10   -0.42    1.81
   0 -14 -10    0.48    1.22
   3   8  -9    1.69    1.56
   3   8  -9    0.23    2.25
   3  -8  -9    0.47    1.82
   3  -8  -9    1.62    2.41
   3  -8  -9    0.85    2.03
   3  -8  -9    1.47    2.03
   3  -8  -9    1.11    1.71
   3   8  -9    1.32    1.57
   3   8  -9    2.46    1.80
   4 -12   4   40.87    2.80
   4  12   4   31.79    2.48
   4 -12   4   37.33    2.59
   4  12   4   32.58    3.09
   4 -12   4   35.97    2.56
   4  12   4   32.60    2.48
   4 -12   4   41.27    3.27
   3  12  -8    0.70    1.89
   3  12  -8   -0.71    1.36
   3 -12  -8   -1.33    1.76
   3 -12  -8   -0.20    2.27
   3 -12  -8    0.57    1.41
   3  12  -8    3.07    2.07
   3 -12  -8    0.53    2.12
   3  12  -8    0.64    1.63
   2  -2 -11    3.51    1.91
   2  -2 -11    2.52    2.11
   2   2 -11    3.19    1.98
   2   2 -11    0.31    1.86
   2  -2 -11    3.11    1.94
   2  -2 -11    5.74    2.23
   2   2 -11    4.63    1.94
   2   2 -11    1.29    2.17
   0 -17   9    9.85    1.76
   0  17  -9   10.37    2.34
   0 -17  -9    9.37    1.97
   0 -17  -9   11.38    1.86
   0 -17  -9   10.16    1.49
   0 -17   9   11.97    1.70
   1 -23   5   23.46    1.90
   1 -23   5   20.46    2.39
  -1 -23  -5   21.36    2.06
  -2 -21  -5   10.20    1.65
   2  21   5    8.67    2.57
   2 -21   5    9.21    1.34
   2 -21   5    5.95    1.87
   2 -21   5    7.71    1.83
   2 -21   5    6.99    1.10
   2  14  -9   21.14    2.44
  -2 -14   9   19.49    1.85
   2 -14  -9   21.56    2.52
   2 -14  -9   24.04    2.30
   2 -14  -9   23.49    2.56
   2  14  -9   18.74    2.35
   2  14  -9   23.54    1.92
  -3 -10  -8   38.32    2.65
   3 -10   8   38.63    3.19
   3  10   8   43.09    3.15
   3 -10   8   36.08    2.55
   3 -10   8   42.47    2.64
   3 -10   8   46.48    3.01
   1 -24   4   51.38    3.56
  -1 -24  -4   53.52    3.25
   1 -24   4   49.00    3.10
   3  20  -3    6.06    1.51
   3  20  -3    3.57    1.73
   3 -20  -3    8.38    1.92
  -3 -20   3    6.68    1.34
   3 -20  -3    8.09    2.04
   3  20  -3    5.95    2.10
   3 -20  -3    4.75    1.85
   3 -20  -3    6.34    1.70
   4  10   5    0.02    1.69
   4 -10   5    1.97    1.53
   4 -10   5    1.99    2.02
   4  10   5    0.91    1.81
   4 -10   5    0.82    1.35
   4  10   5   -0.29    1.32
   4 -10   5   -0.28    1.68
   3   4   9    3.71    2.06
   3  -4   9    3.49    1.37
  -3   4  -9    3.34    1.01
  -3  -4  -9    4.30    1.22
   3  -4   9    4.14    1.49
   3   4   9    2.49    1.10
   3  -4   9    3.90    1.80
   3  -4   9    0.83    1.71
  -1 -16  -9    0.04    1.32
   1 -16   9    2.15    1.33
  -1 -16  -9    1.28    1.52
  -1 -16  -9    3.71    1.88
   1  -9 -11   -0.89    1.99
   1  -9 -11    1.44    1.41
  -1  -9  11   -1.12    1.27
   1   9 -11    0.57    1.19
   1   9 -11   -0.23    2.37
   1  -9 -11    0.36    0.96
   2  18   7   -1.45    1.61
   2 -18   7    0.67    2.00
   2  18   7   -1.69    1.88
   2 -18   7    1.40    1.05
   2 -18   7    0.66    0.98
   2 -18   7   -0.83    1.21
  -2 -18  -7   -0.62    1.42
   2 -24   0   14.24    2.19
  -2 -24   0   10.13    1.69
   2  24   0    6.91    1.49
   2  24   0   11.51    1.64
   2  24   0   10.02    2.60
   2 -24   0   13.41    1.86
   2   3 -11    0.44    1.79
   2   3 -11   -0.39    1.86
   2   3 -11   -0.03    2.25
   2  -3 -11   -0.22    1.91
   2  -3 -11    0.32    1.77
   2  -3 -11    0.20    2.07
   2   3 -11    0.19    1.87
   2  -3 -11   -0.79    1.74
   0 -10  11   13.30    1.67
   0  10 -11    6.96    2.76
   0 -10 -11    9.79    2.20
   0 -10 -11   11.95    1.47
   0 -10 -11    8.68    1.28
  -2 -23  -3    3.76    1.51
   2 -23   3    5.09    1.93
   2 -23   3    4.93    1.76
   2 -23   3    4.98    1.45
   2 -24  -1   39.75    2.58
   2  24  -1   22.07    2.01
   2 -24  -1   22.40    2.31
  -2 -24   1   30.14    2.33
   2  24  -1   24.65    2.33
   2  24  -1   16.07    2.79
  -2 -24   1   25.53    2.22
   2 -24  -1   32.07    2.63
   1  -8  11   69.35    3.85
  -1  -8 -11   74.21    3.85
   1   8  11   62.25    4.14
  -1  -8 -11   64.47    4.30
  -1   8 -11   62.19    3.83
   3 -21   0    0.96    2.10
   3  21   0   -0.40    1.57
   3  21   0    1.62    2.28
   3  21   0    1.02    1.33
  -3 -21   0    1.15    1.32
   3 -21   0    0.41    1.59
   3 -21   0    0.73    1.82
   4 -12  -5    1.54    1.81
   4 -12  -5    0.07    2.22
   4  12  -5    0.55    1.71
   4  12  -5    0.49    2.04
   4 -12  -5    2.04    1.40
   4 -12  -5    2.45    2.17
   4  12  -5    1.41    1.97
  -2  13  -9    7.14    1.34
   2  13   9    5.89    2.03
   2 -13   9    5.03    1.24
  -2 -13  -9    7.51    1.54
   4   7   6    3.79    1.40
   4  -7   6   -1.21    1.89
   4   7   6    2.35    1.62
   4   7   6   -0.36    1.19
   4  -7   6    2.92    1.40
   4  -7   6    3.75    1.78
   4  -7   6    3.98    1.77
   4   7   6    7.06    1.97
   1 -19  -8    7.77    1.67
   1  19  -8    5.48    1.59
   1 -19  -8    8.99    2.23
   1 -19  -8    7.87    1.68
  -1 -19   8    9.27    1.68
   1  19  -8    7.83    2.41
   1 -19  -8    8.44    1.56
   4  -6  -7    2.41    1.42
   4  -6  -7    2.77    2.46
   4   6  -7    2.10    1.86
   4  -6  -7    4.55    2.37
   4   6  -7    3.83    1.76
   4   6  -7    2.70    2.56
   4  -6  -7    2.87    1.68
   4  -6  -7    1.53    2.74
   1 -22   6   38.42    3.07
  -1 -22  -6   43.74    2.82
   1 -22   6   45.61    2.72
  -1 -13 -10    4.19    1.38
   1 -13  10    4.49    1.43
  -1 -13 -10    4.78    1.95
   3 -21  -1   20.76    2.23
  -3 -21   1   24.74    2.04
   3  21  -1   24.20    2.31
   3 -21  -1   30.37    2.44
   3 -21  -1   24.15    2.68
   3  21  -1   21.05    2.74
   3  21  -1   27.97    2.36
   3 -21  -1   29.27    2.63
   3 -21  -1   32.68    2.57
   3  15  -7   47.46    3.42
   3  15  -7   46.10    3.73
   3  15  -7   55.19    3.24
   3 -15  -7   53.11    3.50
   3 -15  -7   51.09    3.23
   3 -15  -7   54.72    3.54
   3 -15  -7   44.46    3.79
   1 -25  -3    1.83    1.41
   1 -25  -3    0.99    2.02
  -1 -25   3    4.14    1.58
   1 -25  -3    3.43    1.72
  -1 -25   3    3.13    1.97
  -2 -16  -8    6.79    1.55
   2 -16   8    7.43    1.26
   2  16   8    8.93    1.94
   2 -16   8    8.72    2.29
   2  16   8    7.82    1.71
   2 -24   1    0.79    1.88
   2  24   1   -0.31    1.34
   2  24   1    0.26    2.49
   2 -24   1    0.09    1.55
  -2 -24  -1    1.42    1.47
   2  -4 -11   10.85    2.34
   2  -4 -11   11.14    1.95
   2   4 -11   12.13    2.51
   2  -4 -11   14.05    2.10
   2   4 -11   10.05    1.86
   2   4 -11   13.47    2.12
   2   4 -11    9.11    1.99
   2  -4 -11   13.69    1.97
  -3   5  -9    0.83    0.95
   3  -5   9    0.24    1.25
   3  -5   9   -0.06    1.45
  -3  -5  -9    0.31    1.19
   3  -5   9   -0.53    1.66
   3   5   9    1.14    2.06
   3  -5   9    1.19    1.75
   0 -26   2    3.37    1.88
   0 -26  -2    1.06    1.48
   0 -26   2    2.00    1.38
   0 -26  -2    1.03    1.26
   0 -26  -2    1.70    1.27
   5   0   0    3.76    1.73
   5   0   0    4.35    1.70
   5   0   0    4.09    2.56
   5   0   0    5.73    2.11
   5   0  -1   28.51    2.35
   5   0  -1   30.31    3.16
   5   0  -1   33.34    2.82
   5   0  -1   23.83    2.32
   2 -17  -8   14.45    2.41
   2  17  -8   11.18    2.38
   2 -17  -8   11.43    1.61
   2 -17  -8   14.11    2.13
  -2 -17   8   13.66    1.63
   2 -17  -8   16.25    2.01
   2  17  -8   12.03    1.89
   4  14   3    6.86    1.55
   4 -14   3    8.78    2.71
   4 -14   3    8.40    1.61
   4 -14   3    6.35    1.28
   4  14   3    3.67    2.27
   4 -14   3    9.56    1.61
   4  14   3    5.41    1.74
   4 -14   3    8.70    1.66
   5   1   0   25.42    2.28
   5  -1   0   24.59    2.21
   5   1   0   22.62    2.87
   5   1   0   22.52    2.22
   5   1   0   25.98    2.59
   5  -1   0   28.55    2.71
   5  -1   0   27.25    3.09
   5  -1   0   25.51    2.24
   5  -1  -1   32.71    2.43
   5  -1  -1   35.22    2.92
   5  -1  -1   36.61    3.29
   5  -1  -1   27.95    2.48
   5   1  -1   36.12    2.93
   5   1  -1   34.27    3.18
   5   1  -1   27.68    2.36
   5   1  -1   31.89    2.47
   2 -19  -7    2.09    1.06
  -2 -19   7    1.38    1.36
   2  19  -7    1.93    2.27
   2 -19  -7    1.62    1.40
   2 -19  -7    2.25    1.72
   2 -19  -7    1.92    2.24
   2 -19  -7    0.28    1.64
   3  17  -6    1.43    2.19
   3 -17  -6    1.28    1.72
   3 -17  -6    0.29    1.46
   3 -17  -6    1.11    2.17
   3 -17  -6   -0.11    1.27
   3  17  -6    1.09    1.41
   3 -17  -6    0.88    1.82
   4 -10  -6   28.38    3.01
   4  10  -6   25.93    2.74
   4 -10  -6   25.84    2.98
   4  10  -6   22.96    2.34
   4  10  -6   26.37    2.76
   4 -10  -6   28.86    2.99
   4 -10  -6   26.01    2.20
   4 -15   2   13.51    2.90
   4  15   2   15.83    2.10
   4  15   2   12.19    1.86
   4  15   2    9.79    2.48
   4 -15   2   12.66    1.79
   4 -15   2   10.32    1.64
   4 -15   2   15.95    1.59
   4 -15   2   15.93    1.80
   0 -24   5   40.53    2.80
   0 -24   5   44.83    3.18
   0 -24  -5   37.16    2.60
  -2   9 -10   37.38    2.53
   2  -9  10   41.19    2.71
  -2  -9 -10   40.09    2.61
   2  -9  10   39.93    2.49
   2   9  10   33.51    2.95
  -2 -20  -6    6.54    1.54
   2 -20   6    5.60    1.89
   2 -20   6    5.23    1.55
   2  20   6    2.57    2.13
   2 -20   6    6.36    1.16
   2 -20   6    4.77    1.08
   3  16   6   32.04    2.55
  -3 -16  -6   36.48    2.44
   3 -16   6   38.22    2.41
   3  16   6   26.57    2.90
   3 -16   6   34.78    2.77
   3 -16   6   36.46    3.02
  -3 -21  -1    7.29    1.41
   3  21   1    8.97    2.52
   3  21   1    8.22    1.82
   3 -21   1    9.04    1.98
   3 -21   1   10.73    1.80
   3 -21   1   10.51    2.17
   3   9  -9    4.08    1.63
   3   9  -9    5.44    1.62
   3  -9  -9    6.38    1.84
   3  -9  -9    6.09    1.73
   3  -9  -9    2.75    1.94
   3  -9  -9    7.83    2.09
   3   9  -9    5.96    1.85
   3   9  -9    5.81    2.26
   3  -9  -9    4.38    2.34
   2 -11 -10    1.31    1.69
   2  11 -10    0.76    1.50
   2 -11 -10   -0.54    1.68
   2  11 -10   -0.22    2.11
  -2 -11  10   -0.62    1.09
   2 -11 -10    2.07    2.12
   2 -11 -10   -0.85    1.61
   1 -25   3    1.18    1.10
  -1 -25  -3    2.43    1.46
   1 -25   3    1.27    1.11
   1 -25   3    2.67    2.00
   5   2   0    9.00    2.45
   5   2   0    5.18    1.98
   5   2   0    9.56    1.72
   5  -2   0   12.78    1.83
   5   2   0   10.12    1.83
   5  -2   0   12.86    1.86
   5  -2   0   12.89    2.77
   5   2  -1   41.55    3.24
   5  -2  -1   43.21    2.98
   5   2  -1   44.23    2.98
   5   2  -1   35.65    2.59
   5  -2  -1   43.95    2.87
   5   2  -1   42.39    3.48
   5  -2  -1   51.27    3.48
   5   2  -1   38.21    2.81
   5  -2  -1   52.22    3.75
   0   0 -12    8.38    2.02
   0   0  12    5.77    1.56
   0   0 -12    9.03    1.50
   0   0 -12   11.93    1.37
   0   0 -12    6.70    1.79
  -1 -21   7   11.39    1.73
  -1 -21   7   11.90    2.44
   1 -21  -7    8.96    1.63
   1 -21  -7   10.01    2.43
   1 -21  -7   10.15    1.87
   1  14 -10   -0.58    1.40
   1  14 -10    0.56    2.03
   1 -14 -10    1.01    1.60
   1 -14 -10    1.26    1.38
  -1 -14  10    1.29    1.36
   1 -14 -10    2.23    1.09
   1 -14 -10    1.81    1.87
   3  19   4   39.78    3.44
   3 -19   4   44.02    2.73
   3 -19   4   32.27    2.69
   3 -19   4   41.30    2.73
   3 -19   4   37.82    3.15
  -3 -19  -4   41.39    2.64
   4  16   0   -1.27    1.35
   4 -16   0   -0.05    1.63
   4 -16   0    2.85    2.58
   4  16   0   -0.82    2.61
   4  16   0    0.10    2.16
   4 -16   0   -0.35    1.41
   4  16   0    0.65    1.59
   0  -1 -12    9.90    1.94
   0  -1 -12   10.51    1.36
   0  -1 -12    9.76    1.49
   0  -1 -12   10.15    1.86
   0   1  12   10.45    1.75
   0   1 -12   10.08    1.59
   0   1 -12   10.70    1.40
   0   1 -12   10.00    2.12
   0   1 -12   10.77    1.77
   1 -17  -9   65.57    4.35
   1 -17  -9   65.66    4.01
  -1 -17   9   76.94    4.05
   1 -17  -9   69.79    4.18
   1  17  -9   67.26    4.35
   1 -17  -9   65.60    3.98
   1  17  -9   71.35    4.24
   4 -16  -1   28.02    3.02
   4  16  -1   19.04    2.51
   4  16  -1   19.82    2.22
   4 -16  -1   21.13    1.95
   4  16  -1   18.59    3.64
   4 -16  -1   17.00    2.19
   4  16  -1   18.52    2.08
   4 -16  -1   19.52    2.08
   4 -15  -3    1.21    1.38
   4 -15  -3    3.90    2.53
   4  15  -3   -1.24    1.68
   4 -15  -3    1.24    1.80
   4  15  -3    0.57    1.84
   4  15  -3    1.07    1.65
   4 -15  -3    0.23    1.92
   4 -15  -3    0.81    1.24
   0 -25   4    0.12    1.33
   0 -25  -4    0.54    1.58
   0 -25   4    1.99    2.02
   0 -25  -4    0.05    1.16
   3 -20   3   68.74    3.71
   3  20   3   47.19    4.19
   3 -20   3   55.59    3.98
  -3 -20  -3   66.95    3.62
   3 -20   3   56.63    3.69
   3 -20   3   59.96    3.44
   2  24  -2    0.53    1.75
   2 -24  -2    3.03    1.71
   2 -24  -2    2.05    1.77
  -2 -24   2    2.94    1.50
  -2 -24   2    3.01    1.69
   2  24  -2    2.56    1.85
   2 -24  -2    6.05    1.79
   2 -24  -2    4.17    1.85
   2  -5 -11   18.34    2.10
   2   5 -11   15.08    2.61
   2  -5 -11   14.64    2.15
   2   5 -11   15.11    2.03
   2  -5 -11   16.40    2.43
   2   5 -11   16.56    2.25
   2  -5 -11   19.08    2.12
   4 -14  -4   36.45    2.82
   4  14  -4   23.38    2.40
   4 -14  -4   39.57    2.87
   4  14  -4   30.04    2.95
   4 -14  -4   32.63    2.49
   4 -14  -4   28.80    2.16
   4  14  -4   36.62    2.67
   4 -14  -4   31.21    2.95
   1 -26   0    1.91    1.76
   1 -26   0    2.65    1.10
   1 -26   0    2.05    1.47
  -1 -26   0    2.01    1.48
   1 -26   0    2.66    1.49
   1  26   0    1.29    1.44
  -1 -26   0    3.08    1.38
   0 -23   6   10.73    1.63
   0 -23  -6    6.42    1.35
   0 -23   6    6.70    2.12
   0   2 -12    8.24    1.34
   0  -2 -12    3.93    1.77
   0  -2 -12    6.99    1.24
   0   2  12    2.06    1.66
   0   2 -12    5.08    1.56
   0   2 -12    4.59    2.08
   0  -2 -12    5.77    1.73
   0  -2 -12    3.90    1.26
   0   2 -12    5.48    1.52
   5   3   0    4.14    1.24
   5   3   0    0.37    1.94
   5  -3   0    0.06    0.89
   5  -3   0    7.35    1.91
   5  -3   0    3.26    1.51
   5   3   0    6.21    2.47
   5   3   0   10.69    1.70
   5   3   0    9.62    1.86
   5  -3   0    8.75    2.70
   5  -3  -1   32.19    2.40
   5  -3  -1   33.99    2.58
   5   3  -1   30.99    2.80
   5   3  -1   32.70    2.56
   5   3  -1   37.45    3.24
   5   3  -1   28.72    2.37
   3 -14   7    2.38    1.73
   3 -14   7    1.40    1.18
   3  14   7    0.76    1.59
   3  14   7    0.70    1.67
   3 -14   7   -1.15    2.10
  -3 -14  -7    2.48    1.29
   3  21  -2   10.56    1.69
   3 -21  -2   12.50    1.79
  -3 -21   2    9.73    1.41
   3  21  -2   10.91    1.90
   3 -21  -2   10.68    2.01
   3 -21  -2   11.41    2.01
   3 -21  -2    8.23    1.85
   3  21  -2    4.12    1.98
   3 -21  -2    9.47    2.10
   5   0   1   13.09    1.96
   5   0   1   15.47    1.92
   5   0   1   15.86    2.58
   5   0  -2    2.87    1.55
   5   0  -2    2.74    1.49
   5   0  -2    5.26    2.51
   5   0  -2    1.02    1.09
   5   0  -2    2.91    2.15
   4  -7  -7    3.00    2.42
   4   7  -7    4.09    1.85
   4   7  -7    2.95    2.47
   4  -7  -7    5.89    1.75
   4  -7  -7    3.66    1.59
   4   7  -7    4.11    1.99
   4  -7  -7    8.26    2.85
   1 -10 -11    8.72    1.55
  -1 -10  11    8.68    1.42
   1 -10 -11    9.57    2.18
   1  10 -11   11.09    2.45
  -3 -11  -8    9.10    1.47
   3 -11   8   12.91    1.94
   3 -11   8   10.53    1.43
   3 -11   8   13.71    2.25
   3 -11   8    9.82    1.28
   3  11   8    9.78    2.03
   5  -1   1   42.25    2.70
   5   1   1   52.31    3.67
   5  -1   1   48.55    3.69
   5   1   1   45.25    3.03
   5  -1   1   47.27    3.08
   5  -1   1   48.92    3.12
   5   1   1   45.34    3.13
  -3   6  -9    1.35    0.90
   3  -6   9    1.58    1.27
   3  -6   9   -0.97    1.61
  -3  -6  -9    0.22    1.12
   3  -6   9   -0.41    1.49
   3  -6   9    0.94    1.78
   3   6   9    0.92    2.04
   5   1  -2    9.20    1.34
   5   1  -2   12.42    1.76
   5   1  -2   13.90    1.76
   5   1  -2   11.54    2.60
   5  -1  -2    9.80    2.26
   5  -1  -2    7.82    1.60
   5   1  -2   12.79    2.29
   5  -1  -2    7.16    2.51
   5  -1  -2    7.23    1.80
   4  11   5    3.26    1.29
   4 -11   5    2.91    2.17
   4  11   5    1.88    1.82
   4  11   5    1.53    1.55
   4 -11   5    2.51    1.38
   4 -11   5    2.94    1.49
   4 -11   5    2.02    1.72
   2 -22  -5    7.84    2.32
   2 -22  -5    7.74    1.72
   2  22  -5    7.44    2.34
   2 -22  -5    8.74    1.51
   2 -22  -5    8.01    1.90
  -2 -22   5    7.59    1.51
   4  -8   6   19.41    2.23
   4   8   6   16.80    1.94
   4  -8   6   17.88    1.73
   4  -8   6   17.70    2.11
   4   8   6   17.60    2.17
   4  -8   6   17.01    1.89
   4   8   6   13.07    1.60
   4  13   4    1.95    1.53
   4 -13   4    1.97    2.36
   4 -13   4    0.70    1.40
   4  13   4    1.32    2.04
   4  13   4    0.31    1.30
   4 -13   4    1.02    1.51
   4 -13   4    1.94    1.48
   4  13   4    1.44    1.27
   3 -13  -8   29.05    2.50
   3  13  -8   25.78    2.63
   3  13  -8   24.40    2.60
   3 -13  -8   21.95    2.04
   3  13  -8   19.93    2.08
   3  13  -8   29.10    2.26
   3 -13  -8   28.49    2.80
   3 -13  -8   29.81    2.82
   1 -26  -1    9.27    1.73
   1 -26  -1    8.90    1.19
   1  26  -1    6.41    1.80
   1 -26  -1   12.76    1.77
  -1 -26   1   10.85    1.76
   1 -26  -1    7.22    1.81
  -1 -26   1    9.47    1.71
  -1 -19  -8   31.21    2.46
   1 -19   8   28.40    2.37
  -1 -19  -8   35.59    2.46
   1 -19   8   37.19    2.42
   1  -9  11  112.89    5.37
  -1   9 -11  103.88    5.38
   1   9  11   74.47    5.48
  -1  -9 -11  118.48    5.40
  -1  -9 -11   71.51    5.60
   3   0 -10    1.62    1.99
   3   0 -10    1.29    1.69
   3   0 -10    1.11    2.13
   3   0 -10   -0.28    2.33
   3  -1 -10    6.85    2.47
   3   1 -10   10.73    1.88
   3  -1 -10    5.85    1.79
   3   1 -10    8.83    2.05
   3   1 -10    7.29    2.15
   3   1 -10    4.84    2.52
   3  -1 -10    5.66    2.25
   3  -1 -10    7.84    2.07
   5   2   1    3.70    1.70
   5  -2   1    8.55    2.60
   5  -2   1    8.39    1.77
   5  -2   1    9.14    1.84
   5   2   1    3.24    2.25
   5   2   1    4.81    1.75
   5  -2   1    6.36    1.22
   5   2   1    1.32    1.85
   5  -2   1    4.65    1.88
   0   3  12   65.92    4.52
   0  -3  12   79.47    4.47
   0  -3 -12   70.29    4.53
   0  -3 -12   69.27    4.38
   0   3 -12   79.94    4.58
   0  -3 -12   99.89    4.44
   0  -3 -12   78.78    4.76
   0   3 -12   89.15    4.46
   0   3 -12   84.91    4.99
   5  -2  -2   33.67    3.21
   5   2  -2   29.58    3.05
   5   2  -2   28.73    2.27
   5   2  -2   28.04    2.32
   5   2  -2   24.38    2.03
   5  -2  -2   29.97    2.87
   5  -2  -2   22.44    2.13
   5   2  -2   31.93    2.76
   5  -2  -2   28.13    2.38
   0  11 -11    0.72    2.48
   0 -11  11   -1.37    1.37
   0 -11 -11   -1.38    1.20
   0 -11 -11    0.64    1.89
   1 -26   1   25.92    2.03
  -1 -26  -1   25.08    2.14
   1 -26   1   25.30    2.45
  -1 -26  -1   17.80    1.75
  -1 -26  -1   22.69    1.85
   1 -26   1   18.79    1.72
   4  16   1   12.91    2.28
   4 -16   1    9.02    1.71
   4  16   1    6.74    2.37
   4 -16   1   13.08    1.71
   4  16   1   12.82    1.33
   4  16   1    8.34    1.89
  -2 -23   4    1.35    1.42
   2  23  -4    2.43    2.07
   2 -23  -4    1.64    2.09
   2 -23  -4    1.41    1.49
   2 -23  -4    0.30    1.60
   2 -23  -4    1.42    1.74
   3 -18   5    0.77    2.08
   3 -18   5    2.02    1.24
   3  18   5    0.20    2.06
  -3 -18  -5    0.99    1.27
   3 -18   5    2.33    1.51
   3 -18   5    1.48    1.29
   4   0   7    2.23    1.48
   4   0   7    2.26    1.50
   4   0   7    3.15    1.89
   2  24   2    0.04    2.56
   2 -24   2    1.59    1.48
   2 -24   2   -1.25    1.92
  -2 -24  -2    0.75    1.43
   0 -20   8  117.38    6.74
   0 -20  -8  112.75    6.52
   0 -20  -8  126.60    6.63
   0  20  -8  121.18    6.68
   0 -20  -8  139.79    7.12
   0 -20   8  152.22    6.79
   0 -15 -10    8.54    1.45
   0 -15 -10   10.55    1.96
   0 -15 -10    7.83    1.36
   0  15 -10    9.61    2.50
   0 -15  10    9.52    1.60
   4   1   7   26.74    2.07
   4   1   7   27.76    2.49
   4   1   7   20.42    2.11
   4  -1   7   21.84    1.95
   4  -1   7   15.52    2.01
   4  -1   7   23.54    2.40
   5  -4   0  106.73    5.58
   5   4   0  106.87    5.72
   5  -4   0  118.63    5.93
   5  -4   0  114.31    5.84
   5   4   0  116.96    6.36
   5  -4   0  119.37    6.40
   5   4   0  125.76    6.02
   5  -4   0   93.32    6.05
   5   4   0   88.58    5.62
   5   4   0  112.88    6.03
   5  -4  -1   19.32    1.85
   5   4  -1   21.30    2.19
   5   4  -1   15.33    1.76
   5  -4  -1   22.94    2.97
   5   4  -1   19.83    2.34
   5   4  -1   18.49    2.67
   5   4  -1   16.13    1.72
   5  -4  -1   20.40    2.28
   3  -2 -10   27.24    2.35
   3   2 -10   27.68    2.37
   3  -2 -10   21.53    2.65
   3  -2 -10   21.85    2.46
   3   2 -10   21.09    2.52
   3  -2 -10   24.30    2.81
   3   2 -10   20.54    2.82
   3   2 -10   22.77    2.46
   2 -15  -9    1.79    2.02
   2  15  -9    1.37    1.83
  -2 -15   9    1.04    1.19
   2 -15  -9    2.07    1.95
   2  15  -9    2.07    1.84
   2 -15  -9    2.17    1.63
   4 -16  -2    1.62    2.50
   4 -16  -2    0.79    1.33
   4  16  -2    0.84    1.86
   4  16  -2   -0.36    3.73
   4 -16  -2    1.84    1.76
   4  16  -2   -0.57    1.61
   4  16  -2    2.21    1.72
   4 -16  -2    0.96    1.32
   4 -16  -2    0.80    1.75
   1 -21   7   29.85    2.17
   1 -21   7   26.52    2.35
   1 -21   7   27.74    2.36
  -1 -21  -7   29.48    2.23
   1  21   7   28.35    2.29
   5   3   1   37.89    2.77
   5  -3   1   30.62    2.85
   5   3   1   35.85    2.82
   5   3   1   38.41    2.61
   5  -3   1   32.63    2.33
   5   3   1   45.63    3.31
   5  -3   1   47.37    3.45
   5  -3   1   38.60    2.78
   5  -3   1   37.89    2.70
   4  -2   7   94.89    4.96
   4  -2   7   96.98    5.15
   4   2   7  101.05    5.16
   4   2   7   82.65    4.92
   4  -2   7   83.82    5.05
   5   3  -2   39.23    3.02
   5   3  -2   36.59    2.67
   5   3  -2   30.94    2.41
   5  -3  -2   31.43    2.41
   5  -3  -2   44.92    3.40
   5  -3  -2   38.91    3.22
   5  -3  -2   37.06    2.69
   5   3  -2   35.92    3.23
   5   3  -2   29.30    2.36
   2  -6 -11    0.79    1.70
   2  -6 -11   -2.16    2.12
   2  -6 -11   -0.53    1.77
   2   6 -11   -1.97    1.84
   2   6 -11    1.72    1.73
   2  -6 -11    2.27    1.74
   2 -21  -6    0.76    1.50
   2 -21  -6   -0.62    2.22
   2 -21  -6    0.52    1.16
  -2 -21   6   -0.73    1.33
   2  21  -6    0.52    2.23
   2 -21  -6   -0.59    1.64
   0   4 -12   16.90    1.65
   0  -4 -12   12.25    1.66
   0  -4  12   16.93    1.71
   0  -4 -12   13.84    1.50
   0  -4 -12   12.71    2.20
   0  -4 -12   19.18    1.52
   0   4 -12   12.18    2.53
   0   4 -12   10.82    1.76
   4  13  -5   50.16    3.68
   4 -13  -5   53.98    4.06
   4 -13  -5   65.79    3.85
   4 -13  -5   52.73    3.60
   4  13  -5   56.65    4.04
   4 -13  -5   66.07    4.00
   4  13  -5   68.83    3.81
   1   0 -12    0.65    1.66
   1   0 -12    5.23    1.06
   1   0 -12    2.68    1.61
   1   0 -12    2.22    1.97
   1   0 -12   -0.94    1.51
   3 -21   2    5.29    2.19
   3 -21   2    5.82    1.76
  -3 -21  -2    3.59    1.28
   3 -21   2    6.38    1.55
   3  21   2    4.54    1.70
   3  21   2    4.49    2.33
   3  20  -4   21.13    1.92
   3  20  -4   16.92    2.46
  -3 -20   4   17.50    1.70
   3 -20  -4   21.22    2.05
   3 -20  -4   19.68    2.48
   3 -20  -4   21.79    2.21
   3 -20  -4   20.81    2.30
   2  10  10    2.67    1.92
  -2  10 -10    7.56    1.29
  -2 -10 -10    5.13    1.41
   2 -10  10    7.62    1.25
   2 -10  10    6.68    1.55
   3   3 -10    3.05    1.90
   3  -3 -10    1.56    2.16
   3   3 -10    2.46    1.92
   3   3 -10    0.83    2.33
   3  -3 -10    1.91    1.95
   3  -3 -10    1.97    2.20
   3  -3 -10    4.76    1.76
   3   3 -10    2.56    1.64
   1  -1 -12   53.90    3.46
   1  -1 -12   47.70    3.58
   1   1 -12   46.37    3.69
   1   1 -12   57.98    3.54
   1   1 -12   57.84    3.35
   1  -1 -12   56.26    3.42
   1   1 -12   48.42    3.47
   1   1 -12   54.76    3.07
   1  -1 -12   61.99    3.09
   1  -1 -12   50.99    3.51
   0 -18  -9    7.40    1.69
   0 -18  -9    7.08    1.85
   0 -18   9    7.55    1.67
   0  18  -9    6.76    2.02
   0 -18  -9    6.74    1.28
   0 -18   9    8.01    1.55
   4  11  -6    2.20    2.07
   4 -11  -6   -0.03    2.25
   4  11  -6    3.89    1.66
   4 -11  -6    2.72    1.46
   4  11  -6    1.59    1.99
   4 -11  -6    4.17    2.23
   3 -10  -9    1.80    2.24
   3 -10  -9    2.42    1.73
   3  10  -9    0.97    1.48
   3  10  -9   -0.47    2.08
   3  10  -9    1.08    1.61
   3  10  -9   -0.37    1.61
   3 -10  -9    1.53    2.03
   3 -10  -9    1.84    1.58
   2 -14   9    1.56    1.05
  -2 -14  -9    3.48    1.38
  -2  14  -9    2.14    1.12
   2  14   9    2.74    1.84
  -3 -19   5   -0.12    1.09
   3  19  -5    1.37    1.31
   3  19  -5    1.29    2.07
   3 -19  -5    1.47    1.68
   3 -19  -5    0.87    1.52
   3 -19  -5   -0.04    1.32
   3 -19  -5   -0.72    2.04
   3  -7   9    2.23    1.82
  -3  -7  -9    3.18    1.23
  -3   7  -9    3.02    0.91
   3  -7   9    2.14    1.46
   3  -7   9    3.43    1.19
   3   7   9    2.29    1.95
   3  -7   9    4.38    1.56
  -1 -17  -9    8.45    1.72
   1 -17   9   11.26    1.51
  -1 -17  -9   11.43    1.92
  -1 -17  -9   13.41    1.60
   4  -3   7   31.11    2.14
   4   3   7   27.30    2.49
   4  -3   7   27.10    2.42
   4  -3   7   24.25    2.31
   4   3   7   21.97    2.02
   0 -26  -3    2.25    1.57
   0 -26   3    1.62    1.87
   0 -26  -3    1.35    1.24
   0 -26   3    0.23    1.32
   1 -14  10   10.23    1.52
  -1 -14 -10   12.14    2.04
  -1 -14 -10   11.30    1.54
   4   8  -7   -0.14    2.25
   4  -8  -7    1.49    2.50
   4  -8  -7    2.11    2.37
   4   8  -7    0.66    1.80
   4  -8  -7    0.07    1.39
   4   8  -7    1.36    1.66
   4  -8  -7   -0.11    1.48
   4  -8  -7    1.18    2.23
   1 -24  -5   54.96    3.42
  -1 -24   5   51.97    3.59
  -1 -24   5   50.68    3.24
   1 -24  -5   46.60    3.30
   1 -24  -5   46.69    3.73
   5   5   0    0.18    1.33
   5  -5   0   -0.68    2.29
   5   5   0   -0.18    1.68
   5   5   0   -0.49    1.71
   5   5   0   -0.73    1.19
   5  -5   0    2.27    1.81
   5  -5   0    0.98    1.45
   5  -5   0    0.34    2.43
   5   5   0    1.12    2.21
   5  -5   0   -2.15    1.11
   1  -2 -12   13.33    1.21
   1  -2 -12    8.64    1.68
   1   2 -12    6.65    2.17
   1   2 -12    9.67    1.62
   1   2 -12   13.66    1.94
   1   2 -12   11.13    1.27
   1  -2 -12    9.23    1.91
   1  -2 -12   10.19    1.75
   1   2 -12    8.57    1.75
   1  -2 -12    8.81    1.99
   5   5  -1   15.21    1.97
   5   5  -1   14.94    2.46
   5   5  -1    9.55    1.55
   5  -5  -1   16.41    2.79
   5   5  -1   11.31    2.05
   5  -5  -1   15.45    2.10
   5  -5  -1   16.32    1.60
  -2   0 -11    2.57    1.15
  -2   0 -11    1.24    1.69
   2   0  11    1.36    1.70
   5  -4   1    6.75    2.43
   5  -4   1    0.81    2.06
   5  -4   1    2.77    1.59
   5  -4   1    5.51    1.85
   5   4   1    5.01    1.66
   5  -4   1    4.46    1.17
   5   4   1    2.10    1.05
   5   4   1    4.62    1.70
   5   4   1    3.80    1.48
   5   4   1    4.03    2.17
   1  26  -2   -0.36    1.87
   1 -26  -2    1.46    1.56
   1 -26  -2    1.40    1.74
   1 -26  -2   -0.73    1.49
  -1 -26   2    0.28    1.64
  -1 -26   2    0.47    1.44
   1 -26  -2    1.44    0.85
   5   4  -2   14.52    2.25
   5  -4  -2   14.13    1.63
   5  -4  -2   19.69    2.05
   5   4  -2    9.72    1.63
   5  -4  -2   27.36    2.91
   5   4  -2   13.53    1.97
   5   4  -2   21.54    2.63
  -2   1 -11   19.22    2.40
  -2   1 -11   36.10    2.22
   2  -1  11   26.92    2.43
   2   1  11   28.50    2.54
  -2  -1 -11   38.87    2.24
   0 -22  -7    1.54    2.11
   0 -22   7   -0.77    1.45
   0 -22  -7    1.98    1.17
   0 -22   7   -0.17    1.82
   2 -12 -10    5.17    1.73
   2  12 -10    3.05    1.40
   2  12 -10    2.58    1.37
  -2 -12  10    2.68    1.13
   2 -12 -10    1.87    1.52
   2 -12 -10    3.18    2.07
   2 -12 -10    2.15    1.63
   2  12 -10    3.53    2.12
   3  -4 -10    7.48    2.29
   3   4 -10   10.80    1.83
   3   4 -10    9.84    2.53
   3   4 -10   10.74    2.02
   3   4 -10   10.62    1.99
   3  -4 -10    8.63    2.00
   3  -4 -10    9.97    1.84
   3  -4 -10    9.40    2.42
  -2 -19  -7   16.85    1.88
   2 -19   7   16.04    1.74
   2 -19   7   24.16    2.42
   2 -19   7   21.30    1.62
  -2 -19  -7   26.39    2.07
   2  19   7   20.55    2.36
   2  19   7   21.77    1.95
   4   9   6   44.18    3.09
   4  -9   6   61.07    3.54
   4  -9   6   56.88    3.31
   4  -9   6   64.43    3.31
   4  -9   6   49.47    3.57
   4   9   6   43.56    3.39
   4   9   6   55.21    3.42
   3 -16  -7    6.59    1.54
   3  16  -7    7.17    2.28
   3 -16  -7    9.16    1.89
   3 -16  -7    3.97    2.22
   3  16  -7    7.77    1.53
   3  16  -7    5.33    1.74
   3 -16  -7    7.78    1.99
   5   0   2    2.09    2.17
   5   0   2    0.18    1.07
   5   0   2    1.76    1.59
   5   0   2    1.74    1.67
  -2   2 -11   12.53    1.89
   2  -2  11   16.88    1.99
   2   2  11   19.75    2.15
  -2  -2 -11   23.83    1.73
  -2   2 -11   22.97    1.74
   2  -2  11   13.47    1.52
   5   0  -3    3.06    1.19
   5   0  -3    1.21    1.97
   5   0  -3    1.73    2.28
   5   0  -3    3.17    1.44
  -1 -26  -2    0.93    1.27
   1 -26   2    0.69    1.11
   1 -26   2    1.08    1.16
   1 -26   2    1.02    1.84
  -1 -26  -2    0.61    1.41
  -2 -24   3    2.09    1.41
   2 -24  -3    1.58    1.88
   2 -24  -3    4.25    1.81
  -2 -24   3    4.25    1.83
   2 -24  -3    4.22    1.69
   2  24  -3    1.92    1.85
   2 -24  -3    2.95    1.49
   0  -5 -12   32.56    2.38
   0   5 -12   39.24    2.54
   0   5 -12   36.41    2.76
   0   5 -12   32.22    3.28
   0  -5  12   42.06    2.59
   0  -5 -12   32.48    2.95
   4 -15   3    5.49    2.63
   4 -15   3    4.01    1.24
   4  15   3    2.70    2.14
   4 -15   3    5.26    1.42
   4  15   3    3.97    1.41
   4 -15   3    5.02    1.49
   4  15   3    3.24    1.62
   4 -15   3    6.35    1.48
   1  -3 -12   17.82    2.33
   1  -3 -12   21.94    2.05
   1  -3 -12   20.38    1.95
   1   3 -12   18.47    1.62
   1   3 -12   11.96    1.82
   1   3 -12   17.49    1.85
   1   3 -12   21.19    2.17
   1  -3 -12   17.76    2.10
   1   3 -12   18.92    2.49
   1  -3 -12   22.48    1.54
   4   0  -8   96.82    5.73
   4   0  -8   93.89    4.94
   4   0  -8   77.36    4.94
   4   0  -8   99.80    5.17
   4   0  -8   90.48    5.40
   5   1   2   13.74    1.86
   5  -1   2    6.16    1.69
   5   1   2   13.75    2.33
   5  -1   2    9.88    2.35
   5  -1   2    4.95    1.25
   5  -1   2    5.88    1.79
   5   1   2   15.06    1.92
   5   1   2    7.98    1.26
   2 -23   4    8.05    1.35
   2  23   4    6.03    2.51
   2 -23   4    8.89    1.85
  -2 -23  -4   10.06    1.60
   2 -23   4    8.68    1.37
   2 -23   4    8.44    1.74
   5  -1  -3    1.01    1.11
   5   1  -3   -0.43    1.52
   5   1  -3    1.38    1.20
   5  -1  -3    2.07    1.38
   5   1  -3    0.62    2.29
   5  -1  -3    5.13    2.31
   5  -1  -3    2.26    2.16
   5   1  -3    0.74    2.04
   1 -23  -6   12.05    1.83
   1 -23  -6   11.79    2.41
   1 -23  -6   10.78    1.73
  -1 -23   6   11.45    1.73
  -1 -23   6   12.81    2.33
   4  -4   7   36.83    2.58
   4  -4   7   34.37    2.61
   4   4   7   35.83    2.74
   4   4   7   29.17    2.29
   4  -4   7   38.37    2.39
   2 -22   5    0.92    1.51
   2 -22   5    2.96    1.11
   2  22   5    2.45    2.36
  -2 -22  -5    1.78    1.45
   2 -22   5    0.34    1.62
   3  21  -3    7.63    1.92
  -3 -21   3    6.61    1.33
   3 -21  -3   10.79    1.88
   3 -21  -3    7.35    1.93
   3 -21  -3    7.67    1.83
   3  21  -3    7.49    1.45
   3 -21  -3    7.54    1.64
   3  21  -3    5.72    1.58
   4   1  -8   38.47    3.73
   4  -1  -8   55.54    3.60
   4  -1  -8   49.51    3.82
   4  -1  -8   46.93    2.85
   4   1  -8   34.85    2.67
   4   1  -8   40.99    3.43
   4   1  -8   40.99    3.05
   4  -1  -8   52.67    3.12
   4  -1  -8   45.27    2.89
   4   1  -8   32.32    2.82
  -1 -11  11   42.57    2.73
   1 -11 -11   45.54    3.28
   1  11 -11   46.96    3.48
   1 -11 -11   39.24    2.76
   1 -25  -4   34.75    2.73
  -1 -25   4   34.86    2.84
   1 -25  -4   32.96    3.00
  -1 -25   4   39.69    2.56
   1 -25  -4   25.96    2.15
   1 -25  -4   30.53    2.63
  -1 -10 -11   29.63    2.81
  -1  10 -11   29.00    2.34
   1 -10  11   33.39    2.34
   1  10  11   32.56    2.77
  -1 -10 -11   36.90    2.31
   2  17   8   15.60    2.01
   2 -17   8   14.37    1.50
  -2 -17  -8   17.03    1.81
   2  -7 -11   43.99    3.46
   2   7 -11   52.72    4.04
   2   7 -11   58.21    3.56
   2  -7 -11   65.99    3.70
   2  -7 -11   51.09    3.87
   2   7 -11   66.98    3.90
   2  -7 -11   60.53    3.69
   4 -16   2    5.95    1.59
   4 -16   2    4.32    1.39
   4  16   2    4.00    1.64
   4 -16   2    5.44    2.56
   4  16   2    5.56    2.21
   4 -16   2    5.75    1.47
   4  16   2    6.24    1.81
   4 -16   2    3.93    1.08
   5   2   2   52.30    3.14
   5   2   2   43.43    3.42
   5   2   2   38.99    2.94
   5  -2   2   43.63    3.03
   5  -2   2   43.00    2.72
   5  -2   2   46.33    3.52
   5  -2   2   50.33    3.06
   3 -12   8   20.86    2.15
   3  12   8   18.75    2.19
  -3 -12  -8   18.81    1.74
   3 -12   8   23.40    2.47
   3 -12   8   21.95    1.73
   5  -2  -3    0.18    1.29
   5   2  -3    1.23    2.21
   5  -2  -3    1.64    2.18
   5   2  -3    0.30    1.88
   5  -2  -3    0.24    2.27
   5   2  -3   -0.26    1.58
   5   2  -3    1.14    1.23
   0 -27   0    0.96    1.20
   0 -27   0   -0.11    1.27
   0 -27   0   -0.87    1.44
   1  15 -10    1.32    1.42
   1 -15 -10   -0.89    1.32
  -1 -15  10    1.03    1.29
   1 -15 -10   -0.59    1.81
   1 -15 -10    1.66    1.53
   1  15 -10    2.46    1.83
   1 -15 -10   -0.06    1.14
   4   2  -8   12.94    2.07
   4   2  -8   13.62    2.88
   4  -2  -8   15.23    1.69
   4   2  -8   11.18    1.81
   4   2  -8   11.52    1.52
   4  -2  -8   17.17    2.06
   4  -2  -8   14.00    1.74
   4  -2  -8   17.03    2.58
   4   2  -8   18.49    2.51
   4  -2  -8   16.20    2.85
  -2   3 -11    1.73    1.39
   2   3  11    0.10    1.72
  -2   3 -11    2.47    1.15
   2  -3  11    1.40    1.43
   2  -3  11   -0.33    1.14
  -2  -3 -11    1.14    1.14
   4 -12   5    2.25    1.55
   4 -12   5    0.99    1.28
   4  12   5    2.32    1.45
   4  12   5    0.47    1.76
   4 -12   5    0.63    2.07
   4  12   5    1.85    1.18
   4 -12   5    0.59    1.40
  -1 -24  -5   16.28    1.76
   1 -24   5   15.42    1.56
   1 -24   5   13.19    2.12
   5   5   1   -1.13    1.58
   5  -5   1   -0.04    1.71
   5   5   1   -0.72    2.11
   5   5   1   -1.16    1.60
   5  -5   1   -0.47    1.04
   5  -5   1    1.25    2.27
   5  -5   1    0.18    2.06
   5  -5   1    0.76    1.44
   5   5   1    0.18    1.04
   5   5   1   -1.50    1.45
   5   5  -2   44.86    3.33
   5   5  -2   41.33    3.08
   5   5  -2   40.66    2.87
   5   5  -2   37.69    2.65
   5  -5  -2   37.45    2.48
   5  -5  -2   42.92    2.96
   5  -5  -2   43.69    3.49
   2 -18  -8    0.59    1.23
   2  18  -8    2.04    1.48
   2 -18  -8   -0.03    1.56
  -2 -18   8    0.98    1.29
   2  18  -8   -1.06    2.02
   2 -18  -8    0.52    1.99
   2 -18  -8   -1.66    1.75
  -1 -20   8    6.00    1.50
   1 -20  -8    3.59    1.37
   1  20  -8    8.64    2.25
   1 -20  -8    6.05    2.04
  -1 -20   8    3.64    2.10
   1 -20  -8    3.94    1.51
   1 -20  -8    4.69    1.48
   5   6   0    2.70    1.21
   5  -6   0    2.83    2.32
   5  -6   0    3.59    1.78
   5  -6   0    4.76    1.37
   5   6   0    3.87    1.68
   5   6   0    3.83    2.11
   5   6   0    3.57    1.63
   5   6   0    1.61    1.18
   5  -6   0    4.48    1.03
   5  -6   0    2.76    2.23
   5  -6  -1   27.02    1.93
   5   6  -1   31.57    2.37
   5   6  -1   19.32    1.97
   5   6  -1   26.46    2.42
   5   6  -1   24.95    2.75
   5  -6  -1   24.09    2.35
  -3 -17  -6   13.78    1.61
   3 -17   6   16.46    1.55
   3 -17   6   14.39    2.23
   3  17   6   11.79    1.59
   3  17   6   13.20    2.10
   3 -17   6   12.45    1.79
   3 -18  -6   19.39    2.16
   3 -18  -6   12.88    1.66
   3 -18  -6   18.16    2.53
   3 -18  -6   16.02    1.82
   3  18  -6   17.89    1.73
   3  18  -6   18.42    2.53
   3 -18  -6   16.74    2.04
   0 -12  11   13.43    1.58
   0  12 -11    8.56    2.62
   0 -12 -11   10.20    1.40
   0 -12 -11   11.73    2.03
   4  15  -4    9.34    1.76
   4 -15  -4    6.24    1.48
   4  15  -4    4.41    2.02
   4 -15  -4    5.88    1.21
   4 -15  -4    6.41    2.09
   4 -15  -4    6.39    1.85
   1  -4 -12   43.97    3.11
   1   4 -12   47.96    2.92
   1   4 -12   40.94    2.79
   1  -4 -12   46.20    3.35
   1  -4 -12   41.14    3.05
   1  -4 -12   59.52    2.75
   1  -4 -12   49.10    3.08
   1   4 -12   41.07    3.58
   1   4 -12   54.51    3.34
   3   5 -10   -0.10    1.55
   3  -5 -10    0.96    1.81
   3  -5 -10    0.19    2.21
   3  -5 -10   -0.13    2.15
   3  -5 -10    1.07    1.63
   3   5 -10    1.82    1.63
   3   5 -10   -1.46    1.85
   3   5 -10   -3.39    2.48
   4 -16  -3    1.99    1.33
   4  16  -3    2.08    1.58
   4  16  -3    2.95    1.84
   4 -16  -3    1.45    1.69
   4 -16  -3    0.80    1.24
   4  16  -3    1.03    1.58
   4 -16  -3    1.54    1.89
   5   3   2   26.63    2.35
   5  -3   2   19.10    2.32
   5   3   2   28.40    2.74
   5  -3   2   24.51    1.93
   5  -3   2   32.15    2.87
   5  -3   2   31.55    2.39
   5   3   2   24.57    2.23
   5  -3   2   28.61    2.34
   0 -27   1   18.46    2.08
   0 -27   1   17.71    1.56
   0 -27  -1   18.14    1.82
   0 -27  -1   17.18    1.78
   0 -27  -1   18.89    1.77
   0 -27   1   20.74    1.81
   3 -15   7   98.44    5.20
   3  15   7   89.86    5.04
  -3 -15  -7   91.62    4.95
   3 -15   7  110.59    5.43
   3 -15   7   98.56    4.93
   5  -3  -3    0.88    2.25
   5   3  -3   -0.73    2.03
   5   3  -3    1.00    1.21
   5   3  -3    1.72    1.76
   5   3  -3    0.62    1.98
   5  -3  -3   -1.49    2.13
   5  -3  -3    2.62    1.25
   4  17   0    2.40    2.56
   4 -17   0    4.37    1.41
   4  17   0    6.81    2.17
   4 -17   0    4.87    1.65
   4  17   0    3.39    1.28
   4  17   0    3.08    1.63
   4 -17   0    5.21    2.53
   3  -8   9    3.67    1.32
   3  -8   9    3.99    1.19
  -3  -8  -9    4.09    1.19
   3  -8   9    4.32    1.84
   3   8   9    3.25    1.99
   3  -8   9    4.74    1.60
  -3   8  -9    4.39    0.91
   4 -14   4   29.67    2.87
   4  14   4   21.56    2.58
   4 -14   4   24.25    1.96
   4 -14   4   27.76    2.17
   4  14   4   18.71    1.81
   4 -14   4   24.87    2.01
   3  22   0   54.62    3.90
   3 -22   0   60.20    3.52
   3  22   0   47.13    3.16
  -3 -22   0   55.13    3.25
   3 -22   0   52.31    3.52
   3  22   0   49.22    3.42
   3 -22   0   63.77    3.65
   1 -25   4   16.57    1.63
   1 -25   4   18.03    2.26
  -1 -25  -4   19.24    1.82
   3  14  -8   48.29    2.80
   3 -14  -8   41.30    2.98
   3  14  -8   28.48    2.58
   3  14  -8   38.38    3.07
   3  14  -8   36.26    3.10
   3 -14  -8   46.71    3.18
   3 -14  -8   37.62    3.23
   4  -3  -8   47.70    3.06
   4   3  -8   39.91    3.29
   4   3  -8   47.08    3.80
   4   3  -8   50.56    3.14
   4  -3  -8   45.96    2.85
   4  -3  -8   45.58    3.70
   4   3  -8   40.85    2.67
   4   3  -8   36.54    2.93
   4  -3  -8   44.92    3.55
   4 -17  -1    7.14    1.50
   4 -17  -1    7.09    1.57
   4  17  -1    7.27    2.11
   4  17  -1    7.57    1.71
   4 -17  -1   10.69    1.83
   4  17  -1    5.91    1.58
   4 -17  -1    7.43    2.44
   4  17  -1    7.17    3.14
   4  -5   7   -1.38    1.66
   4  -5   7   -0.82    1.36
   4   5   7    0.52    1.26
   4   5   7   -0.28    1.83
   4  -5   7   -2.12    1.66
   4  -5   7   -0.36    1.67
   2 -20  -7    6.13    1.69
   2 -20  -7    4.91    1.50
   2 -20  -7    5.52    2.18
   2  20  -7    5.15    2.22
  -2 -20   7    4.99    1.32
   2 -20  -7    4.77    1.46
   2 -25   0    1.77    1.51
   2  25   0    1.24    1.19
  -2 -25   0    3.01    1.41
   2  25   0    1.16    2.04
   2  25   0    0.03    1.09
   2 -25   0    1.75    1.77
   0  -6  12   13.17    1.57
   0  -6 -12   10.43    1.29
   0   6 -12   12.76    1.54
   0  -6 -12   10.07    2.02
   0   6 -12    8.06    2.43
   3  22  -1    0.06    1.40
   3 -22  -1    1.73    1.76
   3  22  -1   -0.54    1.40
  -3 -22   1    0.33    1.22
   3  22  -1    0.54    1.89
   3 -22  -1    0.61    1.52
   3 -22  -1    1.46    1.80
   3 -22  -1   -0.11    1.37
   2 -24   3    6.14    1.45
  -2 -24  -3   12.33    1.67
   2  24   3    8.93    2.62
   2 -24   3   12.12    1.50
   2 -24   3   13.41    1.97
  -2  -4 -11  129.93    5.96
   2  -4  11   98.37    5.85
   2   4  11  106.01    6.08
   2  -4  11   98.68    5.86
  -2   4 -11  128.03    5.97
   1 -18  -9   -0.87    1.27
   1 -18  -9   -0.17    1.36
   1 -18  -9    1.78    1.63
   1  18  -9    0.43    1.60
   1 -18  -9    2.37    1.78
  -1 -18   9    0.02    1.37
   1  18  -9    0.82    1.84
   4  -9  -7    0.50    1.40
   4  -9  -7    1.41    2.32
   4   9  -7    2.65    1.86
   4   9  -7    1.50    2.30
   4  -9  -7   -1.84    2.38
   4   9  -7    2.41    1.60
   4  -9  -7    3.35    1.32
   4  -9  -7    2.50    2.17
   1 -23   6    3.76    1.69
   1 -23   6    2.69    1.18
  -1 -23  -6    1.73    1.33
   2  11  10    1.48    1.81
   2 -11  10    0.74    1.45
  -2  11 -10   -0.70    1.17
   2 -11  10    0.03    1.09
  -2 -11 -10    2.30    1.28
   2 -21   6    2.93    1.71
   2 -21   6    3.82    1.01
   2 -21   6    2.57    1.38
  -2 -21  -6    5.78    1.39
   2 -21   6    4.01    0.95
   2  21   6    4.34    2.11
   2 -25  -1   14.78    1.99
   2  25  -1   11.10    1.73
   2  25  -1   12.94    2.24
   2 -25  -1   11.18    1.69
  -2 -25   1   13.42    1.73
   2 -25  -1   16.36    1.93
  -2 -25   1   11.40    1.53
   3 -11  -9   53.76    3.26
   3  11  -9   56.43    3.16
   3  11  -9   45.57    3.42
   3 -11  -9   45.67    3.55
   3  11  -9   41.84    3.11
   3  11  -9   33.68    2.94
   3 -11  -9   49.74    3.38
   3 -11  -9   44.92    2.99
  -1   0 -12   -0.02    1.72
   1   0  12    0.04    1.50
  -1   0 -12    0.15    1.17
  -1   0 -12    0.20    1.50
   3 -20   4    7.74    2.14
   3  20   4    6.20    2.25
   3 -20   4    8.50    1.55
  -3 -20  -4    9.12    1.40
   3 -20   4    8.23    1.40
   3 -20   4    8.77    1.46
   5   4   2    0.02    1.61
   5  -4   2    4.13    1.23
   5  -4   2    7.81    2.23
   5  -4   2    1.00    1.86
   5   4   2    3.50    1.49
   5   4   2    3.06    2.05
   5  -4   2    1.70    1.54
   5  -4   2    5.25    1.73
   1  -1  12    6.86    1.47
  -1   1 -12    5.06    2.04
  -1  -1 -12   10.18    1.30
  -1   1 -12    8.30    1.29
  -1   1 -12    5.50    1.51
  -1  -1 -12    4.98    1.63
   1   1  12    4.35    1.57
  -1  -1 -12    5.02    1.68
   5   4  -3    2.76    2.11
   5   4  -3    0.97    1.28
   5   4  -3    2.84    1.94
   5   4  -3    0.95    1.97
   4  12  -6    5.01    1.96
   4 -12  -6    6.77    1.52
   4 -12  -6    3.43    2.28
   4  12  -6    3.39    1.60
   4 -12  -6    6.18    2.25
   4  12  -6    6.94    2.00
   5  -6   1    1.19    1.71
   5   6   1    1.45    2.10
   5  -6   1    1.24    1.36
   5   6   1    1.62    1.48
   5   6   1    0.62    1.60
   5   6   1    0.01    1.32
   5  -6   1    0.69    1.04
   5  -6   1    2.80    2.24
   5   6   1    0.69    1.06
   5  -6   1    2.94    2.08
   5   6  -2    1.18    1.60
   5   6  -2   -1.60    1.33
   5   6  -2    0.19    1.94
   5  -6  -2   -0.44    1.84
   5   6  -2    0.10    1.76
   1   5 -12  122.90    6.16
   1  -5 -12  120.33    6.33
  -1  -5  12  107.38    6.11
   1   5 -12  114.40    6.73
   1   5 -12  136.72    6.59
   1  -5 -12  112.87    6.51
   1  -5 -12   94.59    6.15
   1  -5 -12  149.10    6.10
   1   5 -12  113.94    6.11
   4   4  -8   -0.73    0.86
   4   4  -8    1.70    2.10
   4  -4  -8   -0.43    2.31
   4  -4  -8    1.42    2.58
   4   4  -8    0.33    1.48
   4  -4  -8    1.44    1.36
   4   4  -8    0.37    1.78
   4   4  -8    0.06    2.48
   4  -4  -8    1.86    1.74
   3 -22   1    0.95    1.49
   3 -22   1    1.27    1.71
   3  22   1    0.75    1.51
   3 -22   1    3.56    1.96
   3  22   1   -0.07    2.14
  -3 -22  -1    2.14    1.25
   0 -16 -10   10.19    1.87
   0 -16 -10    7.99    1.33
   0 -16 -10    8.48    1.50
   0  16 -10   12.31    2.30
   0 -16  10   10.93    1.60
   2   8 -11    0.39    2.20
   2  -8 -11    0.51    2.03
   2  -8 -11    0.88    1.58
   2   8 -11   -0.17    1.80
   2   8 -11    0.99    1.59
   2  -8 -11   -0.15    1.56
   4 -17   1    1.30    1.41
   4  17   1    0.86    1.57
   4  17   1    0.39    2.18
   4 -17   1   -0.28    1.40
   4 -17   1   -0.10    2.33
   4  17   1    0.88    2.12
   2  25   1   39.88    3.48
   2 -25   1   44.91    2.74
   2 -25   1   46.69    3.05
  -2 -25  -1   43.11    2.70
   4 -10   6    6.18    1.51
   4 -10   6    6.16    1.94
   4  10   6    4.29    1.16
   4  10   6    5.83    1.66
   4 -10   6    3.91    1.31
   4  10   6    5.83    1.68
   4 -10   6    3.33    1.67
   1 -22  -7    3.92    1.41
  -1 -22   7    3.95    1.43
   1  22  -7    5.77    2.37
   1 -22  -7    5.33    2.10
   1 -22  -7    5.21    1.63
  -1 -22   7    8.34    2.13
   4 -14  -5   10.39    2.15
   4  14  -5   10.09    2.25
   4  14  -5   13.40    1.81
   4 -14  -5   12.51    1.93
   4 -14  -5   10.25    1.65
   4 -14  -5    9.00    2.25
  -1   2 -12   21.57    1.63
  -1  -2 -12   20.30    1.63
  -1  -2 -12   12.15    1.90
   1   2  12   13.07    1.89
  -1  -2 -12   11.18    1.73
   1  -2  12   12.06    1.50
  -1   2 -12   11.17    1.61
  -1   2 -12   15.37    2.29
   3  21   3   -0.67    2.20
   3 -21   3    2.52    2.10
  -3 -21  -3    1.96    1.27
   3 -21   3    0.64    1.36
   3 -21   3    1.03    1.56
   3  -6 -10   35.83    2.64
   3   6 -10   33.54    2.67
   3  -6 -10   32.52    2.87
   3  -6 -10   32.89    2.64
   3  -6 -10   27.93    3.03
   3   6 -10   27.02    3.08
   3   6 -10   37.33    2.63
  -2 -16   9   34.06    2.41
   2  16  -9   37.10    2.98
   2 -16  -9   40.98    2.99
   2  16  -9   38.15    2.84
   2 -16  -9   42.51    3.00
   2 -16  -9   37.16    2.79
   5   7   0    3.45    1.29
   5   7   0    3.79    1.64
   5  -7   0    5.20    2.30
   5   7   0    3.05    2.08
   5  -7   0    5.68    1.10
   5   7   0    5.19    1.76
   5  -7   0    7.39    1.33
   5  -7   0    7.95    1.84
   5  -7  -1    8.03    2.39
   5   7  -1    3.00    1.42
   5   7  -1    7.84    1.78
   5   7  -1    7.30    2.25
   5   7  -1    1.63    1.70
   5  -7  -1    7.31    1.89
   5  -7  -1    6.45    1.18
   1 -26  -3    0.28    1.83
  -1 -26   3    0.97    1.78
   1 -26  -3    1.53    1.24
  -1 -26   3    2.74    1.42
   1 -26  -3    2.45    1.58
   2  -5  11   27.41    2.25
  -2  -5 -11   40.92    2.34
  -2   5 -11   40.09    2.30
   2  -5  11   24.58    2.13
   2   5  11   30.47    2.62
   4 -17  -2    0.71    1.25
   4  17  -2    1.58    1.54
   4 -17  -2   -0.93    1.65
   4  17  -2    0.75    1.71
   4  17  -2    0.41    1.56
   4 -17  -2    0.73    1.25
   4 -17  -2    1.95    2.33
   4 -17  -2    1.47    1.67
   4  -6   7    3.50    1.34
   4  -6   7    3.86    1.58
   4  -6   7    2.55    1.60
   4   6   7    1.70    1.22
   4   6   7    2.08    1.79
   4  -6   7    1.21    1.62
   0 -25  -5   17.47    1.73
   0 -25   5   23.00    1.95
   0 -25  -5   22.69    2.18
   0 -25   5   22.84    2.41
   1 -20   8   10.17    1.43
   1  20   8    7.46    1.88
   1  20   8   10.22    1.81
   1 -20   8    8.32    1.49
  -1 -20  -8    8.51    1.45
   1 -20   8   10.47    1.86
  -1 -20  -8    8.97    1.48
   2 -13 -10    0.93    1.61
   2 -13 -10    2.08    1.56
  -2 -13  10   -0.35    1.06
   2  13 -10    0.65    1.35
   2 -13 -10    1.09    1.93
   2  13 -10    1.97    1.98
   3  19   5   -1.35    1.92
   3 -19   5   -0.49    1.15
   3 -19   5   -0.92    1.37
  -3 -19  -5   -0.88    1.22
   3 -19   5   -1.53    1.87
   3 -19   5    0.67    1.18
   2 -15   9    2.77    1.05
  -2 -15  -9    2.85    1.32
   2  15   9    5.45    1.75
  -2  15  -9    3.07    1.13
   1  11  11   21.09    2.36
  -1  11 -11   21.79    1.89
   1 -11  11   22.76    1.84
  -1 -11 -11   20.66    1.82
  -1 -11 -11   18.71    2.35
   3 -22  -2   13.75    1.85
   3  22  -2   10.12    1.95
   3 -22  -2   16.87    1.83
   3  22  -2   12.21    1.63
   3 -22  -2   15.47    2.04
   3 -22  -2   18.86    2.06
   3  22  -2   12.61    1.85
  -3 -22   2   10.67    1.68
  -3 -22   2   15.07    1.55
   0 -27  -2    6.86    1.24
   0 -27  -2    7.89    1.49
   0 -27   2    8.54    1.77
   0 -27   2    8.16    1.44
   0 -27  -2    7.43    1.27
  -1   3 -12    1.20    1.23
  -1  -3 -12    2.91    1.79
   1   3  12    0.52    1.63
  -1  -3 -12    1.29    1.19
  -1 -15 -10   -0.07    1.26
   1 -15  10    1.72    1.22
  -1 -15 -10    1.04    1.66
   0   7 -12   23.35    1.93
   0  -7 -12   18.71    1.69
   0  -7 -12   26.01    2.48
   0  -7  12   27.29    1.99
   0   7 -12   21.86    2.78
   0  -7 -12   29.60    1.88
   5   5   2    2.23    1.99
   5  -5   2    2.52    1.46
   5  -5   2   -0.15    1.89
   5  -5   2    1.55    1.12
   5  -5   2    3.66    2.12
   5   5   2    2.25    1.58
   5  -5   2    2.85    1.67
   5   5   2    3.23    1.46
  -1 -12  11   21.40    1.78
   1  12 -11   21.62    2.51
   1 -12 -11   16.90    2.33
   1 -12 -11   19.40    1.84
   5   5  -3    0.45    2.26
   5   5  -3    0.35    1.28
   5   5  -3   -0.70    1.92
   5   5  -3    1.05    1.82
   1 -26   3   21.72    1.84
   1 -26   3   23.79    1.75
  -1 -26  -3   30.30    2.11
  -1 -26  -3   23.09    2.08
   1 -26   3   26.40    2.46
   4   5  -8    3.16    1.79
   4  -5  -8    4.25    1.71
   4   5  -8    3.51    2.52
   4  -5  -8    4.92    1.42
   4  -5  -8    2.41    2.37
   4  -5  -8    4.44    2.37
   4   5  -8    1.83    1.54
   0 -24  -6    2.20    1.13
   0 -24   6    0.21    1.31
   0 -24   6    0.37    1.84
   3  -9   9    0.83    1.13
  -3   9  -9    2.46    0.81
   3  -9   9    1.05    1.88
   3   9   9    3.82    1.90
   3  -9   9    4.13    1.51
   3  -9   9    1.99    1.10
  -3  -9  -9    3.32    1.20
   2 -25  -2    0.72    1.53
  -2 -25   2   -0.82    1.44
   2 -25  -2   -0.50    1.58
   2 -25  -2    0.07    1.53
   2  25  -2    1.29    1.60
  -2 -25   2   -0.49    1.35
   2  25  -2   -1.30    1.64
   0 -21  -8    0.70    1.93
   0 -21   8    2.14    1.60
   0 -21   8    0.77    1.37
   0 -21  -8    1.56    1.11
   0 -21  -8    1.31    1.21
   2 -23  -5    0.71    1.97
   2 -23  -5    2.56    1.53
   2 -23  -5   -0.16    1.57
   2  23  -5    2.06    2.12
  -2 -23   5    1.58    1.32
   2 -23  -5    0.52    1.21
   1   6 -12   -4.01    2.22
   1   6 -12   -3.28    1.81
   1   6 -12    1.11    1.01
   1  -6 -12    0.97    0.87
   1  -6 -12   -1.98    1.99
  -1  -6  12   -2.40    1.20
   1  -6 -12    0.84    1.38
   1   6 -12   -1.02    1.15
   3  13   8    8.23    1.81
   3 -13   8    7.07    2.07
   3 -13   8    5.14    1.19
  -3 -13  -8    5.07    1.28
   3 -13   8    5.79    1.70
   0 -26   4   -1.32    1.89
   0 -26   4    2.41    1.31
   0 -26  -4    1.48    1.54
   0 -26  -4    0.38    1.13
   5   0   3   11.48    2.15
   5   0   3   14.85    1.87
   5   0   3   13.20    1.42
   5   0   3   12.73    1.82
   5   0  -4    2.24    1.28
   5   0  -4    5.20    2.79
   5   0  -4    4.73    2.02
   5   0  -4    3.01    3.00
   5   0  -4    5.15    2.05
   5  -7   1   -0.46    1.34
   5   7   1   -0.83    1.10
   5   7   1   -0.02    1.55
   5  -7   1    0.20    1.03
   5   7   1   -0.23    2.06
   5  -7   1   -1.16    1.68
   5   7   1   -0.85    1.43
   5   7   1    0.61    1.10
   5  -7   1   -1.58    2.14
  -1 -18  -9    2.26    1.41
  -1 -18  -9    3.20    1.48
   1 -18   9    1.93    1.23
  -1 -18  -9    0.85    1.22
   5   7  -2   13.12    1.67
   5   7  -2   17.86    2.11
   5   7  -2   12.42    2.17
   5   7  -2   16.88    2.17
   5  -1   3    5.26    1.20
   5  -1   3    5.41    1.71
   5   1   3    3.07    1.64
   5   1   3    3.02    1.12
   5  -1   3    5.46    2.03
   5   1   3    3.72    1.62
   5  -1   3    6.97    1.71
   5   1   3    3.11    2.03
   0 -19  -9    6.51    1.22
   0 -19  -9    8.55    1.80
   0 -19  -9    9.01    1.61
   0 -19   9    9.19    1.51
   0 -19   9    5.54    1.59
   0  19  -9    9.48    1.75
   4 -13   5    2.90    1.29
   4  13   5    1.70    1.67
   4  13   5    2.15    1.10
   4 -13   5    1.81    1.46
   4 -13   5    3.15    2.09
   4 -13   5    3.13    1.32
   4  13   5    3.42    1.26
   5   1  -4   25.94    2.63
   5   1  -4   24.24    1.97
   5   1  -4   21.21    3.47
   5  -1  -4   27.83    2.64
   5  -1  -4   29.32    2.60
   5   1  -4   27.81    2.56
   5   1  -4   25.72    3.16
   5  -1  -4   23.42    1.89
  -1  -4 -12   99.96    6.08
  -1   4 -12  118.86    5.88
  -1  -4 -12  127.05    5.88
   1   4  12   94.33    5.93
   4 -16   3    7.05    2.53
   4 -16   3    6.43    1.28
   4  16   3    5.08    1.66
   4  16   3    8.61    1.58
   4 -16   3   10.03    1.52
   4 -16   3    8.96    1.37
   4 -16   3    8.51    1.50
   4  16   3    5.43    2.07
   4  10  -7   -0.06    1.57
   4  10  -7   -1.67    1.81
   4 -10  -7   -1.42    2.25
   4  10  -7    0.03    2.05
   4 -10  -7    0.30    2.19
   4 -10  -7   -0.76    2.18
   4 -10  -7    1.30    1.10
   4 -10  -7   -0.83    1.39
  -1 -27   0   18.97    1.82
   1 -27   0   17.59    1.61
   1  27   0   15.12    1.81
  -1 -27   0   29.53    2.07
   1 -27   0   24.68    2.22
   1 -27   0   26.87    1.98
   1 -22   7    8.60    1.55
  -1 -22  -7   12.37    1.55
   1  22   7    9.82    1.42
   1 -22   7   10.60    1.74
   3   7 -10    0.55    1.54
   3   7 -10    0.06    1.74
   3  -7 -10    2.11    1.64
   3  -7 -10   -0.17    1.94
   3   7 -10    1.84    2.30
   3  -7 -10   -0.16    2.26
   3  -7 -10    1.85    1.60
  -2  -6 -11    3.39    1.19
   2   6  11    4.40    1.77
  -2   6 -11    3.81    1.12
   2  -6  11    1.92    1.24
  -2 -24   4   14.09    2.12
   2 -24  -4   13.73    1.71
   2 -24  -4   18.78    2.08
   2 -24  -4   18.58    1.96
   2 -24  -4   15.28    2.22
  -2 -24   4   16.80    1.74
   2  24  -4   16.29    2.39
   0  13 -11    0.03    2.18
   0 -13 -11   -0.18    1.06
   0 -13  11   -0.05    1.28
   0 -13 -11    0.64    1.77
   3 -17  -7    4.04    2.09
   3 -17  -7    5.92    1.71
   3  17  -7    4.41    2.09
   3 -17  -7    0.72    0.85
   3  17  -7    6.46    1.39
   3 -17  -7    4.76    1.83
   3 -20  -5   23.66    2.53
   3  20  -5   24.82    1.92
   3 -20  -5   22.05    2.02
   3  20  -5   26.51    2.65
   3 -20  -5   25.04    2.10
  -3 -20   5   19.45    1.68
   3 -20  -5   28.23    2.38
   3 -21  -4   13.61    1.71
   3  21  -4   15.59    2.19
   3 -21  -4   11.86    2.11
   3 -21  -4   18.69    2.07
   3 -21  -4   14.48    1.94
  -3 -21   4   14.04    1.43
   3  21  -4   15.76    1.61
   5  -2   3    1.21    1.68
   5   2   3    2.07    1.57
   5  -2   3   -0.86    2.03
   5  -2   3    0.61    1.10
   5   2   3    0.99    1.92
   5   2   3    1.94    1.54
   5  -2   3    1.86    1.52
   5   2  -4   -1.30    3.33
   5   2  -4    1.34    2.05
   5   2  -4    1.19    1.28
   5   2  -4    1.94    2.56
   5  -2  -4    2.78    1.14
   5  -2  -4    4.61    2.03
   5   2  -4    1.24    1.92
  -2 -22   6    0.63    1.30
   2 -22  -6    0.76    1.03
   2 -22  -6    0.03    1.53
   2 -22  -6    1.02    1.42
   2 -22  -6    2.11    1.97
   2  22  -6    0.96    2.10
   4  -7   7    7.11    1.67
   4  -7   7    5.06    1.59
   4   7   7    5.94    1.76
   4  -7   7    3.57    1.76
   4   7   7    2.32    1.06
   4  -7   7    8.21    1.37
   4   7   7    4.34    1.15
   2 -25   2    1.39    1.32
   2  25   2    1.25    1.25
   2 -25   2    0.05    1.71
  -2 -25  -2    1.83    1.01
   2  25   2    1.19    2.38
  -2 -25  -2    0.98    1.31
   5   8   0   21.67    2.08
   5  -8   0   28.30    2.27
   5   8   0   28.19    2.20
   5   8   0   28.50    2.60
   5  -8   0   24.12    1.77
   5  -8   0   23.46    1.66
   2   9 -11    0.87    1.45
   2  -9 -11    0.16    1.50
   2  -9 -11    0.52    1.97
   2   9 -11    0.03    1.68
   2   9 -11   -0.79    2.10
   2  -9 -11   -1.54    1.50
   3  22   2   -1.11    2.13
   3 -22   2   -0.91    1.97
   3  22   2   -0.20    1.48
   3 -22   2   -0.52    1.35
   3 -22   2    0.34    1.55
  -3 -22  -2    0.75    1.10
   5   8  -1   59.87    3.66
   5   8  -1   65.67    3.71
   5  -8  -1   47.60    3.08
   5   8  -1   63.61    4.01
   5  -8  -1   61.10    4.06
   5   8  -1   53.00    3.43
   5  -8  -1   68.67    3.71
  -1 -16  10   18.94    2.11
   1 -16 -10   20.17    1.76
   1 -16 -10   22.90    2.18
   1  16 -10   12.46    1.89
   1 -16 -10   18.43    1.98
   1  16 -10   22.86    2.28
   1 -16 -10   16.33    1.62
  -1 -16  10   22.52    1.86
   5   6   2    0.03    1.92
   5  -6   2    0.12    1.08
   5  -6   2    1.29    1.66
   5   6   2   -0.97    1.30
   5  -6   2    1.07    2.03
   5   6   2   -0.58    0.94
   5  -6   2   -1.27    1.38
   5   6   2   -1.27    1.49
   5  -6   2   -0.65    2.01
   1 -27  -1   12.16    1.73
  -1 -27   1   14.33    1.69
   1 -27  -1   17.71    1.79
   1 -27  -1   11.07    1.79
   1  27  -1   10.43    1.77
  -1 -27   1   15.69    1.71
   2 -12  10   16.10    1.91
   2 -12  10   16.82    1.58
  -2 -12 -10   21.45    1.76
  -2  12 -10   17.66    1.60
   2  12  10   20.66    2.14
   5   6  -3   -0.72    1.25
   5   6  -3    0.59    1.76
   5   6  -3   -0.31    1.94
   5   6  -3    0.47    2.74
   4  17   2    6.44    2.18
   4  17   2    6.01    1.67
   4 -17   2    7.52    1.46
   4  17   2    8.40    1.89
   4 -17   2   10.37    1.53
   4 -17   2   12.26    2.43
   4  -6  -8   19.80    2.77
   4   6  -8   19.96    2.74
   4  -6  -8   19.20    1.99
   4   6  -8   22.41    2.17
   4  -6  -8   17.43    1.84
   4   6  -8   17.82    2.05
   4  -6  -8   17.21    2.67
   2  18   8   23.06    2.05
  -2 -18  -8   27.36    1.98
  -2 -18  -8   15.87    2.00
   2 -18   8   24.50    2.44
   2  18   8   17.31    1.98
   2 -18   8   23.29    1.66
   3  12  -9    4.51    1.57
   3  12  -9    3.47    1.66
   3 -12  -9    3.99    2.15
   3  12  -9    1.73    1.36
   3 -12  -9    2.69    1.35
   3 -12  -9    1.53    1.83
   3 -12  -9    3.28    1.65
   3  12  -9    3.29    1.99
   1 -27   1    4.62    1.27
   1 -27   1    4.81    1.73
  -1 -27  -1    4.17    1.40
  -1 -27  -1    4.19    1.13
   1 -27   1    3.90    1.03
   5  -3   3    8.75    1.75
   5  -3   3    7.26    2.12
   5   3   3    5.90    1.97
   5  -3   3    9.48    1.31
   5   3   3    8.85    1.68
   5  -3   3    8.34    1.68
   5   3   3    8.45    1.62
   2 -20   7   18.91    2.09
   2  20   7   14.13    1.49
  -2 -20  -7   19.62    1.76
   2 -20   7   11.76    1.49
   2 -20   7   17.24    1.37
   2  20   7   16.79    2.07
  -2 -20  -7   11.46    1.51
   5  -3  -4   10.59    2.19
   5   3  -4    7.80    3.55
   5   3  -4   11.67    2.74
   5   3  -4   12.37    2.13
   5   3  -4    9.68    1.54
   5   3  -4    8.91    2.18
   4 -15   4    1.54    2.34
   4  15   4   -0.69    1.43
   4 -15   4   -0.40    1.36
   4 -15   4   -0.64    1.29
   4  15   4   -1.27    1.79
   4  15   4    0.81    1.16
   4 -15   4   -0.83    1.27
   3  15  -8    2.07    1.41
   3  15  -8    0.26    1.81
   3  15  -8    1.36    1.13
   3 -15  -8    3.68    1.96
   3 -15  -8    3.14    2.02
   3  15  -8    1.63    1.76
   3 -15  -8    2.46    1.63
   4 -16  -4   -0.17    1.04
   4  16  -4   -0.36    1.45
   4  16  -4   -0.22    1.84
   4 -16  -4    0.84    1.36
   4 -16  -4    0.23    1.87
   4 -16  -4    0.98    1.63
   0  -8 -12    4.87    1.14
   0   8 -12    5.15    1.27
   0  -8  12    5.14    1.29
   0  -8 -12    5.29    1.85
   0   8 -12    7.25    2.19
   4  11   6   -0.59    1.50
   4  11   6    0.55    1.54
   4 -11   6    0.12    1.37
   4 -11   6    0.11    1.93
   4 -11   6    0.85    1.56
   4  11   6   -0.04    0.98
   4 -11   6    0.58    1.21
   1   5  12    0.40    1.69
  -1   5 -12    4.97    1.28
  -1  -5 -12    4.65    1.19
  -1  -5 -12    4.03    1.81
  -3 -16  -7    3.17    1.21
   3 -16   7    3.22    1.93
   3  16   7    3.93    1.52
   3 -16   7    3.16    1.11
   3  16   7    1.60    1.54
   3 -16   7    3.35    1.50
  -3   0 -10    0.54    0.99
   3   0  10    1.12    1.71
   3   0  10    0.65    1.04
   1   7 -12   16.31    1.98
  -1  -7  12   15.44    1.45
   1  -7 -12   14.66    1.63
   1   7 -12   11.90    2.36
   1   7 -12   12.29    1.35
   1  -7 -12   11.46    2.12
   4  13  -6   -0.06    1.84
   4 -13  -6   -0.20    2.09
   4  13  -6   -0.02    1.48
   4 -13  -6    0.32    1.31
   4 -13  -6    0.45    2.05
   4  13  -6   -0.70    1.83
   4 -17  -3    8.00    1.36
   4  17  -3    5.89    1.59
   4 -17  -3    6.45    1.87
   4  17  -3    9.33    1.66
   4  17  -3    6.41    1.81
   4 -17  -3    8.45    1.51
   4 -17  -3   10.15    1.83
   3   1  10    9.33    1.86
  -3  -1 -10   10.82    1.20
   3   1  10    5.43    1.13
  -3   1 -10   11.20    1.16
   3  -1  10    9.85    1.81
   3  -1  10    6.83    1.29
   3  18   6    7.53    1.89
  -3 -18  -6   12.87    1.43
   3 -18   6   12.47    1.71
   3 -18   6   12.76    1.41
   3 -18   6    8.67    2.09
   0 -23   7   13.12    2.02
   0 -23   7   12.33    1.55
   0 -23  -7    7.44    1.28
   0 -23  -7   14.49    2.18
   2  19  -8    1.79    1.92
   2 -19  -8    0.80    1.19
   2 -19  -8   -0.18    1.61
   2 -19  -8   -0.18    1.43
   2 -19  -8   -1.48    1.92
  -2 -19   8   -0.07    1.16
   4  18   0    1.44    1.46
   4 -18   0    2.15    1.55
   4  18   0    1.33    1.11
   4  18   0    0.65    1.86
   4 -18   0   -0.21    1.30
   4 -18   0    4.19    2.42
   3 -19  -6    0.74    1.33
   3 -19  -6    1.27    1.95
   3  19  -6    0.99    1.16
   3 -19  -6    1.13    1.58
   3 -19  -6    0.26    1.16
  -3 -19   6    0.67    0.96
   3  19  -6    0.85    2.04
   5  -8   1    6.43    1.25
   5   8   1    4.76    2.08
   5   8   1    3.98    1.30
   5  -8   1    8.57    1.81
   5   8   1    8.16    1.72
   5  -8   1    1.29    2.28
   5  -8   1    7.74    1.41
   5   8  -2    3.91    1.66
   5   8  -2    3.04    1.39
   5   8  -2    5.76    2.25
   5   8  -2    6.61    2.04
   3 -22  -3    8.08    1.81
   3  22  -3    6.60    1.80
   3  22  -3    8.79    1.37
   3 -22  -3    7.41    1.59
  -3 -22   3    4.99    1.24
   3 -22  -3    5.96    1.73
   3 -22  -3    8.77    1.78
  -1 -25   5    8.82    1.56
  -1 -25   5    9.84    1.99
   1 -25  -5    8.20    1.75
   1 -25  -5    7.40    1.53
   1 -25  -5   10.82    2.18
  -3  -2 -10   -0.01    1.03
   3  -2  10    1.63    1.16
   3  -2  10   -0.78    1.20
   3   2  10    0.53    1.74
  -3   2 -10    1.32    0.92
   3  -2  10    1.01    1.58
   5  -4   3    0.49    1.58
   5   4   3    0.34    1.47
   5   4   3   -0.89    1.85
   5  -4   3   -0.75    1.50
   5  -4   3    0.35    1.09
   5  -4   3   -0.70    1.83
   5  -4   3   -0.67    1.66
   5   4   3    0.54    1.46
   2   7  11   33.71    2.71
   2  -7  11   33.22    2.43
  -2   7 -11   38.32    2.38
   5   4  -4   21.77    2.33
   5   4  -4   16.64    2.30
   5   4  -4   16.65    1.81
   5   4  -4   23.96    3.92
   5   4  -4   20.05    2.76
   4 -18  -1    8.65    1.50
   4 -18  -1    8.69    2.24
   4 -18  -1    7.25    1.72
   4  18  -1    7.59    1.48
   4 -18  -1    7.01    1.45
   4  18  -1    6.26    1.84
   4  18  -1    6.34    1.64
   3 -10   9    4.65    1.15
   3 -10   9    4.36    1.57
   3 -10   9    2.85    1.86
   3  10   9    4.27    1.84
  -3 -10  -9    3.19    1.18
  -1 -12 -11   29.04    2.11
   1 -12  11   29.45    2.10
  -1  12 -11   28.43    2.11
  -1 -12 -11   26.14    2.54
   1  12  11   30.80    2.51
   2 -23   5   12.40    1.76
   2 -23   5   13.59    1.34
  -2 -23  -5   17.47    1.67
   2 -23   5   14.42    1.82
   2  23   5   13.35    2.49
   2 -23   5   12.71    1.54
   3  -8 -10    9.52    1.97
   3  -8 -10   16.79    2.45
   3  -8 -10   17.57    1.93
   3   8 -10   16.75    1.86
   3   8 -10   12.98    2.38
   3  -8 -10   15.24    1.83
   3   8 -10   14.41    1.95
   3  -8 -10   17.21    2.04
   1 -21  -8   33.53    2.43
   1 -21  -8   25.44    2.19
   1  21  -8   33.16    2.95
  -1 -21   8   33.58    2.71
  -1 -21   8   33.67    2.33
   1 -21  -8   30.12    2.78
   4 -15  -5    2.82    1.98
   4  15  -5    0.56    1.90
   4 -15  -5   -0.67    1.55
   4 -15  -5    1.10    1.33
   4  15  -5    0.44    1.48
   4 -15  -5    0.63    1.84
   0 -27  -3    0.44    1.40
   0 -27  -3    0.02    1.09
   0 -27   3   -0.07    1.68
   0 -27   3    1.37    1.24
   2 -24   4    9.93    1.31
   2  24   4    6.88    2.43
  -2 -24  -4   10.84    1.54
   2 -24   4   10.60    1.81
   2 -24   4   10.01    1.60
   1 -24  -6   -0.02    1.49
  -1 -24   6    0.62    1.37
   1  24  -6    1.93    2.21
   1 -24  -6    1.52    1.31
  -1 -24   6   -0.73    1.94
   1 -24  -6    0.49    1.96
   5   7   2   -0.43    1.89
   5   7   2   -0.91    1.02
   5  -7   2    0.65    1.07
   5   7   2    1.60    1.47
   5  -7   2    0.96    1.58
   5  -7   2   -0.34    1.37
   5   7   2    0.50    1.17
   5  -7   2   -0.87    2.07
   5   7  -3    0.54    3.06
   5   7  -3    0.43    1.35
   5   7  -3   -0.03    1.78
   5   7  -3    0.47    1.86
   1 -19  -9    3.67    1.76
   1  19  -9    0.68    1.81
   1 -19  -9    1.11    1.47
  -1 -19   9    1.37    1.27
   1  19  -9    1.50    1.37
  -1 -19   9    1.19    1.85
   1 -19  -9    1.33    1.18
   1 -19  -9    1.75    1.27
   2 -25  -3    2.22    1.53
   2 -25  -3    2.16    1.70
  -2 -25   3    1.96    1.62
   2 -25  -3    1.19    1.42
   2 -25  -3    0.90    1.67
   2  25  -3    1.35    1.68
  -2 -25   3    0.09    1.31
   1  27  -2    1.11    1.62
   1 -27  -2   -0.48    1.45
  -1 -27   2    1.42    1.30
  -1 -27   2    0.90    1.49
   1 -27  -2    1.60    1.61
   1  27  -2    1.03    1.54
   1 -27  -2    0.75    1.28
  -2 -14  10    3.84    1.09
   2  14 -10    5.39    1.40
   2  14 -10    8.17    1.94
   2 -14 -10    4.99    1.50
   2 -14 -10    7.94    1.72
   2 -14 -10    9.17    2.08
   4   8   7    3.51    1.16
   4  -8   7    4.43    1.43
   4  -8   7    4.78    1.59
   4  -8   7    3.24    1.22
   4  -8   7    0.18    1.74
   4   8   7    1.06    1.04
   4   8   7    1.03    1.69
   4   8   7    1.22    0.83
   3  -3  10   31.87    2.20
   3  -3  10   28.12    2.37
   3   3  10   33.73    2.53
  -3  -3 -10   35.46    2.14
   4   7  -8    2.28    1.66
   4  -7  -8    2.39    2.35
   4   7  -8    2.23    2.20
   4  -7  -8    2.51    1.51
   4  -7  -8    0.33    2.34
   4  -7  -8    2.22    1.33
   4   7  -8    0.56    1.53
  -1 -13  11    0.55    1.11
   1 -13 -11    1.70    1.77
   1  13 -11    2.02    1.88
   1 -13 -11    1.27    1.17
   0  17 -10   12.46    2.05
   0 -17 -10   12.00    1.52
   0 -17 -10    8.85    1.29
   0 -17  10   10.66    1.57
   0 -17 -10   13.45    1.80
   1  -6  12    5.06    1.30
  -1   6 -12    3.93    1.24
  -1  -6 -12    2.97    1.72
  -1  -6 -12    6.06    1.22
   1   6  12    2.35    1.67
   5   9   0    5.36    1.47
   5   9   0    3.95    1.32
   5  -9   0    6.52    1.08
   5   9   0    7.56    1.65
   5  -9   0    8.33    1.74
   5  -9   0    6.01    1.08
   5   9   0    8.20    2.17
   5  -9  -1   -1.11    0.88
   5  -9  -1   -0.73    2.31
   5   9  -1   -1.33    1.30
   5   9  -1    1.95    2.02
   5  -9  -1   -0.20    1.72
   5   9  -1   -0.57    1.48
   5   9  -1    1.29    1.79
   2 -17  -9    2.58    1.84
   2  17  -9    1.23    1.70
   2 -17  -9    0.72    1.73
  -2 -17   9    1.24    1.12
   2 -17  -9    1.43    1.52
   2  17  -9    2.68    1.54
   2  21  -7   14.80    2.38
   2 -21  -7   15.48    1.86
   2 -21  -7   14.06    1.68
  -2 -21   7   15.38    1.64
   2 -21  -7   14.71    2.30
   4  11  -7    0.68    2.01
   4 -11  -7    1.78    2.20
   4  11  -7    1.69    1.81
   4 -11  -7   -0.60    2.10
   4 -11  -7    1.65    1.33
   4  11  -7    2.14    1.52
  -1 -26   4    9.04    1.92
   1  26  -4   10.08    2.22
   1 -26  -4   12.35    2.07
   1 -26  -4    4.19    0.94
   1 -26  -4   10.24    1.74
  -1 -26   4   11.97    1.56
   4 -18   1   -0.17    1.31
   4 -18   1   -0.02    2.20
   4  18   1    1.24    1.98
   4 -18   1    0.33    1.36
   4  18   1    0.59    1.46
   1 -27   2    2.92    0.99
  -1 -27  -2    2.71    1.30
  -1 -27  -2    1.94    1.16
   1 -27   2    2.95    1.70
   1 -27   2    2.59    1.06
   2  16   9   -0.51    1.63
   2 -16   9   -0.28    0.94
  -2 -16  -9   -0.86    1.26
   2 -16   9    0.77    1.86
  -2 -16  -9   -0.22    1.53
  -2  16  -9   -0.08    1.01
   2 -10 -11    2.36    2.00
   2  10 -11    2.08    0.70
   2  10 -11    2.67    2.00
   2 -10 -11    3.33    1.55
   2  10 -11    1.83    1.31
   2 -10 -11    1.99    1.43
   5   5   3    8.46    1.61
   5  -5   3   10.33    1.31
   5  -5   3   10.83    1.57
   5  -5   3    6.58    1.90
   5  -5   3    2.77    1.80
   5  -5   3    5.43    1.70
   5   5   3    7.74    1.92
   5   5   3    7.76    1.50
   5   5  -4   -0.58    1.29
   5   5  -4    1.45    1.82
   5   5  -4    0.43    2.45
   5   5  -4   -0.35    1.86
   5   5  -4   -0.44    3.82
  -1 -25  -5    5.41    1.29
   1 -25   5    3.02    1.12
   1 -25   5    3.09    1.68
  -3 -23   0    0.72    1.15
   3 -23   0    0.62    1.43
   3 -23   0   -1.04    1.63
   3  23   0    0.79    1.30
   3  23   0    2.20    1.92
   3 -23   0    2.01    1.66
  -1 -16 -10    0.34    1.15
  -1 -16 -10    0.51    1.51
   1  16  10    0.84    1.66
   1 -16  10    0.29    1.15
   1   8 -12    9.38    1.27
   1   8 -12   11.62    2.25
   1  -8 -12   10.93    1.50
  -1  -8  12   10.66    1.28
   1  -8 -12   10.90    1.97
   3 -14   8   28.45    1.92
  -3 -14  -8   27.86    1.98
   3 -14   8   31.97    2.58
   3  14   8   32.56    2.36
   3 -14   8   32.72    2.39
   3 -21   4    8.61    1.38
   3  21   4    4.89    2.18
  -3 -21  -4    9.26    1.34
   3 -21   4    7.25    2.10
   3 -21   4    7.69    1.49
   3 -21   4    7.68    1.20
   4 -18  -2    4.96    1.63
   4 -18  -2    2.85    2.20
   4  18  -2    4.74    1.49
   4 -18  -2    6.19    1.63
   4  18  -2    2.42    1.48
   4  18  -2    5.86    1.74
   4 -18  -2    4.79    1.31
   0  -9  12   46.18    2.68
   0   9 -12   41.07    2.66
   0  -9 -12   41.28    3.06
   0  -9 -12   45.20    2.61
   0   9 -12   39.66    3.39
   3  23  -1   42.13    2.95
   3  23  -1   36.27    2.89
   3  23  -1   42.48    3.30
   3 -23  -1   59.27    3.13
  -3 -23   1   45.50    2.86
   3 -23  -1   58.02    3.26
  -3   4 -10    3.12    0.92
   3  -4  10   -1.22    1.50
   3  -4  10    1.30    1.44
   3   4  10    0.72    1.73
  -3  -4 -10    3.16    1.08
   3  -4  10    0.61    1.27
  -2 -22  -6   -0.48    1.27
   2 -22   6    0.79    1.55
   2 -22   6    0.58    1.32
   2  22   6    0.11    1.78
   4 -14   5    5.50    1.46
   4  14   5    3.14    1.66
   4  14   5    1.63    1.26
   4 -14   5    2.51    1.21
   4 -14   5    4.38    2.19
   4  14   5    2.02    1.01
   4 -14   5    5.23    1.29
   0 -28   0    4.29    1.44
   0 -28   0    5.93    1.23
   0 -28   0    5.38    1.40
   0 -28   0    8.75    1.29
   0 -14  11   47.15    2.84
   0 -14 -11   39.84    2.66
   0  14 -11   49.61    3.52
   0 -14 -11   49.97    3.14
   1 -24   6    9.21    1.70
  -1 -24  -6    7.58    1.38
   1 -24   6    6.88    1.26
   2   8  11    1.97    1.76
  -2  -8 -11    3.07    1.76
  -2  -8 -11    2.15    1.18
   2  -8  11   -0.74    1.27
  -2   8 -11    1.24    1.01
   1 -26   4    1.67    1.68
  -1 -26  -4    2.12    1.22
   1 -26   4    1.29    1.06
   2 -25   3   38.34    2.43
   2  25   3   33.49    3.30
   2 -25   3   37.25    2.76
  -2 -25  -3   39.14    2.55
   2 -13  10    7.81    1.55
   2  13  10    7.28    1.73
   2 -13  10    8.95    1.17
  -2 -13 -10    8.43    1.37
  -2 -13 -10    7.97    1.83
  -2  13 -10    7.17    1.21
   5   9   1    3.92    1.98
   5  -9   1   -0.06    2.16
   5   9   1    1.42    1.16
   5   9   1    3.07    1.28
   5  -9   1    3.32    1.17
   5  -9   1    3.26    1.63
   5  -9   1    2.31    1.08
   5   9   1    2.64    1.52
   3  20   5    4.24    1.94
  -3 -20  -5    4.37    1.20
   3 -20   5    6.10    1.92
   3 -20   5    4.35    1.13
   3 -20   5    4.11    1.31
   3 -20   5    4.41    1.21
   5   9  -2    8.02    1.73
   5   9  -2    5.70    1.92
   5   9  -2    4.88    1.40
   5   9  -2    6.78    2.70
   3  22   3    3.07    2.08
  -3 -22  -3   -0.60    1.14
   3 -22   3    0.16    1.90
   3 -22   3   -0.26    1.42
   3 -22   3    0.66    1.29
   3  22   3    1.03    1.37
   3 -23   1   31.78    2.18
   3 -23   1   25.07    2.34
   3  23   1   24.64    2.63
   3 -23   1   30.71    2.36
  -3 -23  -1   26.60    1.97
   4   0   8    6.49    1.44
   4   0   8    9.79    1.78
   2  26   0    4.09    1.93
  -2 -26   0    3.60    1.35
   2 -26   0    3.37    1.70
   2 -26   0    4.37    1.47
   4 -12   6   28.16    2.05
   4 -12   6   23.62    1.73
   4 -12   6   18.45    1.71
   4  12   6   20.16    1.87
   4  12   6   14.94    1.92
   3 -13  -9    3.73    1.57
   3  13  -9    0.95    1.92
   3 -13  -9    2.69    1.92
   3 -13  -9    6.02    1.97
   3  13  -9    2.30    1.25
   3  13  -9    1.15    1.55
   3  13  -9    3.80    1.49
   1  21   8   32.67    2.88
   1 -21   8   50.34    2.65
  -1 -21  -8   32.38    2.43
   1 -21   8   37.13    2.74
  -1 -21  -8   49.26    2.70
   1  21   8   45.69    2.70
   1 -21   8   36.51    2.64
   4   1   8   83.30    4.64
   4  -1   8   78.08    4.49
   4   1   8   78.68    4.45
   1 -23  -7   14.51    1.73
   1 -23  -7    9.13    1.51
  -1 -23   7   14.95    2.16
   1 -23  -7   14.80    2.29
  -1 -23   7   14.68    1.62
   1  23  -7   15.56    2.41
   2   0 -12   82.62    4.49
   2   0 -12   69.60    4.54
   2   0 -12   71.71    4.68
   2   0 -12   87.75    4.58
   5  -8   2   12.44    1.29
   5   8   2   11.62    2.10
   5  -8   2    1.78    2.19
   5   8   2    7.79    1.18
   5  -8   2   11.54    1.51
   5   8   2   12.50    1.69
   5  -8   2   11.96    1.73
   5   8   2    3.74    1.18
  -1   7 -12    2.62    1.03
   1  -7  12    3.88    1.23
  -1  -7 -12    3.78    1.78
   1  -7  12    1.65    1.01
  -1   7 -12    3.06    1.23
  -1  -7 -12    4.30    1.20
   1   7  12    3.13    1.72
   0 -28  -1    7.02    1.31
   0 -28  -1    5.94    1.70
   0 -28   1    7.19    1.24
   0 -28  -1    7.74    1.35
   0 -28   1    6.61    1.57
   0 -28  -1    7.54    1.27
   3  -9 -10    2.17    2.12
   3   9 -10   -0.19    1.56
   3   9 -10    0.80    2.07
   3  -9 -10    2.95    1.58
   3  -9 -10   -0.82    1.71
   3   9 -10    0.21    1.35
   3  -9 -10    1.11    1.35
   5   8  -3    1.53    1.35
   5   8  -3    2.92    1.76
   5   8  -3    4.90    3.60
   5   8  -3    1.70    1.80
   4  17   3   13.41    2.19
   4  17   3    6.29    1.69
   4 -17   3   21.07    2.60
   4 -17   3   18.65    1.65
   4  17   3   10.43    1.56
   4 -17   3   15.03    1.35
   4 -17   3   11.79    1.40
   2   1 -12    1.42    1.71
   2  -1 -12    3.52    1.97
   2   1 -12    2.65    1.58
   2   1 -12    3.28    1.66
   2  -1 -12    1.39    1.82
   2  -1 -12    4.94    1.71
   2   1 -12   -0.08    1.92
   4  -8  -8    1.34    1.29
   4  -8  -8    0.68    2.21
   4   8  -8    0.55    1.55
   4  -8  -8    0.98    1.30
   4   8  -8    0.65    1.59
   4   8  -8    2.20    2.11
   4  -8  -8    3.63    2.33
   5  -6   3   10.14    1.73
   5   6   3   10.41    2.04
   5  -6   3    8.86    1.57
   5   6   3    8.34    1.51
   5  -6   3    5.17    2.00
   5  -6   3    7.37    1.26
   5   6   3    7.57    1.49
   5   6  -4    1.97    3.98
   5   6  -4   -0.31    1.80
   5   6  -4    0.64    1.34
   5   6  -4    0.37    1.79
   2 -26  -1   15.46    1.73
  -2 -26   1    9.83    1.32
   2 -26  -1   14.84    1.84
   2  26  -1   10.04    1.56
   2  26  -1   11.48    1.99
  -2 -26   1   16.32    1.64
   2 -26  -1   10.04    1.47
   3  -5  10   68.61    3.79
  -3  -5 -10   67.81    3.67
   3  -5  10   64.33    3.70
   3   5  10   75.48    3.99
   4  -2   8   23.12    1.78
   4  -2   8   14.57    1.75
   4   2   8   11.77    1.56
   4   2   8   14.38    2.02
   4  -2   8   19.75    1.94
   3 -11   9    5.04    1.50
  -3 -11  -9    1.24    1.10
   3 -11   9    0.22    1.72
   3  11   9    3.10    1.69
   3 -11   9    1.73    1.03
   1  19   9    7.24    1.66
  -1 -19  -9    5.17    1.44
   1 -19   9    4.83    1.25
   1 -19   9    6.96    1.82
  -1 -19  -9    6.02    1.29
  -1 -19  -9    6.28    1.44
   4   9   7   -0.07    1.13
   4  -9   7    0.67    1.31
   4   9   7   -1.74    1.03
   4   9   7    1.45    1.55
   4  -9   7    0.18    1.67
   4  -9   7   -0.11    1.18
   4  -9   7    0.76    1.49
   4   9   7   -0.39    0.88
   3 -18  -7    5.55    1.76
   3  18  -7    6.62    2.07
   3 -18  -7    6.98    1.70
   3  18  -7    4.74    1.37
   2   2 -12    6.14    2.17
   2   2 -12   10.54    1.73
   2   2 -12    6.49    1.67
   2  -2 -12    8.46    2.07
   2   2 -12   11.93    1.85
   2  -2 -12   11.15    1.80
   2  -2 -12   10.58    1.86
   5   0   4    2.63    1.60
   5   0   4    1.50    1.09
   5   0   4    1.68    1.50
   5   0   4    1.86    1.76
   3  23  -2    6.44    1.30
   3 -23  -2    6.73    1.50
   3  23  -2    4.61    1.56
   3  23  -2    7.51    1.55
   3 -23  -2    9.50    1.54
  -3 -23   2    7.05    1.24
  -3 -23   2    7.64    1.24
   3 -23  -2    8.29    1.78
   5   0  -5   34.86    2.76
   5   0  -5   36.88    3.40
   5   0  -5   31.81    2.30
   4  14  -6    0.53    1.79
   4  14  -6   -0.43    1.41
   4 -14  -6    0.44    1.32
   4 -14  -6   -0.22    1.99
   4 -14  -6    1.24    1.92
   1 -17 -10    4.28    1.20
   1 -17 -10    6.30    1.67
   1  17 -10    5.69    1.68
   1 -17 -10    3.97    1.09
  -1 -17  10    3.58    1.29
   1 -17 -10    5.42    1.55
  -1 -17  10    3.96    1.61
   1  17 -10    3.29    1.42
   5  -1   4   15.89    1.81
   5   1   4   14.24    2.04
   5  -1   4   16.31    2.06
   5   1   4   18.95    1.79
   5  -1   4   14.94    1.77
   5   1   4   14.79    1.76
   5  -1   4   13.19    1.47
   0 -20   9   -0.62    1.30
   0  20  -9   -0.53    1.35
   0 -20  -9    0.52    1.00
   0  20  -9    2.72    1.70
   0 -20   9    0.84    1.33
   0 -20  -9    1.86    1.53
   0 -20  -9    0.82    1.27
   2  26   1    0.96    2.05
   2 -26   1    0.29    1.59
   2 -26   1    2.22    1.33
  -2 -26  -1    0.62    1.24
   5  -1  -5    5.53    1.33
   5  -1  -5    9.02    2.83
   5   1  -5    0.70    2.57
   5   1  -5    2.33    1.35
   5  -1  -5    8.87    1.99
   5   1  -5    3.08    1.87
   4 -16   4    1.07    1.24
   4 -16   4    1.98    2.28
   4 -16   4    0.57    1.08
   4  16   4    0.87    1.34
   4 -16   4    1.29    1.22
   4  16   4    1.26    1.75
   3  16  -8   45.35    2.61
   3 -16  -8   35.56    3.05
   3  16  -8   35.70    2.98
   3 -16  -8   41.90    2.88
   3  16  -8   30.20    2.67
   3 -16  -8   45.49    2.98
   0 -22  -8    0.31    1.73
   0 -22   8    1.18    1.29
   0 -22  -8    0.52    0.98
   0 -22   8    1.35    1.51
   5 -10   0    3.15    1.02
   5 -10   0    1.38    2.27
   5  10   0    2.65    1.67
   5 -10   0    4.76    1.67
   5  10   0    5.39    1.97
   5  10   0    4.21    1.35
   5  10   0    0.60    1.23
   5 -10  -1    2.52    2.44
   5  10  -1    6.55    1.44
   5  10  -1    9.60    1.62
   5  10  -1   15.61    2.31
   5 -10  -1   13.47    1.13
   5  10  -1   15.10    2.16
  -1 -13 -11    6.30    1.26
   1  13  11    7.19    1.80
  -1  13 -11    5.40    1.31
  -1 -13 -11    7.68    1.81
   1 -13  11    5.62    1.24
   4  -3   8   12.87    1.45
   4  -3   8    9.71    1.66
   4   3   8    9.34    1.82
   4  -3   8    8.65    1.48
   4   3   8    7.92    1.30
   4 -18   2    5.31    1.31
   4 -18   2    6.34    1.35
   4  18   2    4.76    1.96
   4 -18   2    8.97    2.30
   4  18   2    2.45    1.50
   4 -17  -4    5.37    1.38
   4 -17  -4    5.68    1.14
   4  17  -4    7.32    1.48
   4  17  -4    5.81    1.80
   4 -17  -4    6.89    1.66
   4 -17  -4    6.98    1.94
   5  -2   4   10.71    1.26
   5   2   4    9.03    1.86
   5  -2   4   12.66    1.71
   5   2   4    8.12    1.63
   5  -2   4    8.62    1.76
   5  -2   4    4.40    1.81
   5   2   4    8.14    1.62
   5   2  -5   18.38    2.94
   5  -2  -5   12.96    2.15
   5   2  -5   18.68    2.16
   5   2  -5   16.94    1.72
   5  -2  -5   11.73    1.50
   5  -2  -5   17.44    2.95
   2   3 -12   17.79    2.00
   2  -3 -12   10.41    2.05
   2  -3 -12   16.87    1.90
   2  -3 -12   16.75    1.87
   2   3 -12   14.87    1.78
   2  -3 -12   12.63    1.97
   2   3 -12   12.18    2.25
   0 -26   5    5.30    1.29
   0 -26   5    6.20    1.76
   0 -26  -5    3.29    1.08
   0 -26  -5    4.50    1.98
   0 -26  -5    4.30    1.49
  -1  -9  12    0.66    1.05
   1  -9 -12    1.29    1.78
   1   9 -12    2.02    2.03
   1   9 -12    0.07    1.02
  -1 -27   3   17.47    1.99
   1  27  -3   19.12    2.22
  -1 -27   3   20.75    1.78
   1 -27  -3   16.46    2.11
   1 -27  -3   14.34    1.52
   1 -27  -3   17.90    1.87
  -3 -17  -7   42.00    2.49
   3 -17   7   41.08    2.37
   3 -17   7   39.17    2.89
   3 -17   7   43.59    2.69
   3  17   7   35.89    2.43
   3 -21  -5   12.58    1.81
   3 -21  -5   11.00    1.57
   3  21  -5   11.41    2.04
   3 -21  -5   10.83    2.07
   3  21  -5   10.48    1.30
   3 -21  -5    9.18    1.48
  -3 -21   5    8.64    1.18
  -2 -19  -8    0.99    1.19
  -2 -19  -8    0.74    1.22
   2  19   8   -0.44    1.32
  -2  19  -8   -0.68    0.94
   2 -19   8    0.06    1.69
   2 -19   8    0.65    0.89
   2  19   8    0.11    1.33
  -2 -24   5    1.98    1.76
   2  24  -5    2.98    1.93
   2 -24  -5    1.60    1.47
   2 -24  -5    1.67    1.08
  -2 -24   5    2.29    1.28
   2 -24  -5    0.34    1.76
   2 -24  -5    3.46    1.40
   2 -11 -11   10.69    2.12
   2 -11 -11   12.23    1.68
   2  11 -11   13.72    2.14
   0 -25   6    0.83    1.70
   0 -25  -6    0.29    1.86
   0 -25  -6    0.21    1.44
   0 -25  -6   -0.01    0.96
   0 -25   6   -0.83    1.29
   0  10 -12    2.59    2.15
   0  10 -12    2.79    1.21
   0 -10 -12    2.62    1.06
   0 -10  12    2.56    1.18
   0 -10 -12    3.42    1.70
   4  12  -7    5.92    1.86
   4 -12  -7    4.63    1.37
   4  12  -7    3.04    1.89
   4  12  -7    6.91    1.56
   4 -12  -7    4.45    2.08
   4 -12  -7    6.26    2.09
   3  22  -4   27.72    2.48
   3 -22  -4   23.32    2.30
   3 -22  -4   28.86    2.37
   3  22  -4   22.59    1.81
   3 -22  -4   26.92    2.17
   3 -22  -4   27.77    2.12
  -3 -22   4   22.40    1.79
   4 -18  -3    0.49    1.27
   4  18  -3    1.45    1.29
   4  18  -3    1.20    1.59
   4 -18  -3   -0.75    1.56
   4  18  -3   -0.50    1.38
   4 -18  -3    0.78    1.12
   4 -18  -3   -0.38    1.60
   3  -6  10   -1.34    1.54
  -3   6 -10   -0.78    0.82
  -3  -6 -10   -0.30    1.01
   3  -6  10   -0.89    1.13
   3   6  10   -4.27    1.83
   3  -6  10   -1.84    1.36
   5   3   4    0.73    1.68
   5  -3   4    1.74    1.12
   5  -3   4    2.20    1.53
   5   3   4    2.32    1.44
   5  -3   4    1.93    1.42
   5  -3   4   -0.37    1.65
   5   3   4    2.04    1.37
  -1 -14  11    3.53    1.19
   1 -14 -11    0.41    1.10
   1  14 -11    2.40    1.88
   1 -14 -11    1.30    1.60
  -1 -23  -7    0.03    1.11
   1 -23   7    0.90    1.08
   1 -23   7    1.43    1.40
  -2  -9 -11   -0.42    1.16
   2  -9  11    0.73    1.21
  -2  -9 -11    0.94    1.68
  -2   9 -11   -0.12    1.01
   2   9  11   -2.04    1.72
   5   3  -5   39.93    2.85
   5   3  -5   38.61    2.51
   5  -7   3   10.68    1.72
   5   7   3    8.51    1.42
   5  -7   3    9.69    1.53
   5  -7   3    7.52    2.02
   5   7   3    8.89    1.87
   5   7   3   11.10    1.50
   5  -7   3   11.21    1.31
   2 -26  -2    0.54    1.35
   2 -26  -2    1.57    1.42
  -2 -26   2    0.66    1.25
   2  26  -2    0.80    1.34
   2 -26  -2    1.74    1.40
  -2 -26   2    0.36    1.20
   5   7  -4   15.37    2.07
   5   7  -4   22.28    2.20
   5   7  -4   17.04    1.73
   5   7  -4   22.97    4.21
   4   4   8    3.05    1.08
   4   4   8    4.98    1.70
   4  -4   8    4.08    1.48
   4  -4   8    2.82    1.39
   4  -4   8    4.94    1.27
   2  15 -10    4.99    1.41
  -2 -15  10    6.27    1.09
   2 -15 -10    6.65    1.54
   2 -15 -10    8.05    1.69
   2 -15 -10    9.26    1.94
   2  15 -10    7.49    1.81
   0 -28   2    5.73    1.24
   0 -28  -2    2.58    1.73
   0 -28  -2    6.36    1.33
   0 -28  -2    3.90    1.11
   0 -28   2    6.56    1.63
  -1 -27  -3   11.65    1.43
  -1 -27  -3   11.57    1.47
   1 -27   3   10.80    1.22
   1 -27   3   12.14    1.89
   4 -16  -5   10.76    2.03
   4 -16  -5   11.60    1.59
   4 -16  -5   14.47    1.76
   4  16  -5   12.36    2.07
   4  16  -5   12.14    1.65
   1   8  12   41.56    2.90
  -1  -8 -12   50.25    2.66
  -1  -8 -12   36.99    2.98
   1  -8  12   47.74    2.65
   1  -8  12   31.58    2.43
  -1   8 -12   44.00    2.67
   3 -19   6   -0.19    1.01
  -3 -19  -6   -0.24    1.12
   3  19   6   -0.65    1.58
   3 -19   6   -0.49    1.36
   3 -19   6    0.72    1.73
  -2 -23   6   10.35    2.04
   2 -23  -6    9.04    2.07
   2  23  -6    8.37    2.08
   2 -23  -6    6.26    1.50
  -2 -23   6    7.45    1.35
   2 -23  -6    6.55    1.56
   2 -21   7   31.90    2.50
   2  21   7   29.25    2.56
   2 -21   7   25.23    2.11
   4   0  -9    9.99    2.65
   4   0  -9   12.37    2.28
   4   0  -9   11.67    1.48
   4   0  -9   11.31    1.99
   2   4 -12   13.86    2.22
   2   4 -12   15.20    1.78
   2   4 -12   18.17    1.97
   2  -4 -12   16.51    1.87
   2  -4 -12   13.53    2.14
   2  -4 -12   17.73    1.83
   2  -4 -12   12.08    1.93
   3  23   2    3.09    1.97
   3 -23   2   -0.54    1.75
  -3 -23  -2   -0.33    1.11
   3  23   2    0.51    1.34
   3 -23   2    0.21    1.50
   3 -23   2    1.47    1.28
   5 -10   1    0.39    2.13
   5 -10   1    1.84    1.02
   5  10   1    0.70    1.11
   5  10   1    2.08    1.41
   5 -10   1    2.55    1.04
   5  10   1    3.48    1.15
   5  10   1    1.45    1.83
   5 -10   1    1.71    1.53
   5  10  -2    1.42    1.62
   5  10  -2    0.67    1.53
   5  10  -2   -0.30    1.30
   5  10  -2    3.82    3.16
   4  -1  -9   53.60    3.40
   4  -1  -9   60.89    3.62
   4  -1  -9   53.18    3.87
   4  -1  -9   50.16    4.06
   4   1  -9   67.81    3.68
   4   1  -9   61.84    3.36
   4   1  -9   65.72    3.93
   4   1  -9   61.93    4.18
   5   9   2    5.98    1.42
   5  -9   2    0.59    2.11
   5   9   2    7.43    1.98
   5  -9   2    5.38    1.14
   5  -9   2    6.37    1.30
   5  -9   2    6.75    1.61
   5   9   2   -0.01    1.11
   5   9  -3    1.97    1.70
   5   9  -3   -0.77    1.66
   5   9  -3    0.02    1.22
   4 -19   0   14.61    1.58
   4 -19   0   17.11    2.40
   4  19   0   13.04    2.08
   4  19   0    9.88    1.67
   4 -19   0   16.31    1.76
  -2 -25   4    2.82    1.61
  -2 -25   4    3.88    1.31
   2 -25  -4    3.03    1.22
   2 -25  -4    6.29    1.62
   2  25  -4    3.78    1.84
   2 -25  -4    2.93    1.73
   2 -25  -4    4.56    1.50
   4  -9  -8   16.90    1.57
   4  -9  -8   11.95    2.38
   4  -9  -8   17.72    1.72
   4   9  -8   15.80    1.92
   4   9  -8   19.13    1.96
   4  -9  -8   19.97    2.48
   4  -9  -8   17.75    2.36
   4   9  -8   18.01    2.50
   0 -27  -4   13.94    1.42
   0 -27   4   16.53    1.61
   0 -27  -4   16.98    1.76
   0 -27  -4   13.43    2.18
   0 -27   4   20.32    2.06
   3   0 -11    6.53    1.53
   3   0 -11    3.49    1.89
   3   0 -11    4.80    2.11
   3   0 -11    4.76    1.84
  -2 -20   8   11.98    1.45
   2 -20  -8   17.78    2.20
   2  20  -8   15.50    2.23
   2 -20  -8   16.02    1.82
   2 -20  -8   10.56    1.44
   4 -19  -1   38.38    2.52
   4  19  -1   28.75    2.26
   4  19  -1   28.94    2.48
   4  19  -1   24.67    2.58
   4 -19  -1   41.33    2.41
   4 -19  -1   33.70    2.90
   3  10 -10   10.09    1.61
   3 -10 -10   13.55    2.28
   3 -10 -10   17.74    1.86
   3  10 -10   13.53    2.20
   3  10 -10   15.27    1.80
   3 -10 -10   10.17    1.94
   3 -10 -10   14.14    1.66
   3   1 -11    5.12    1.48
   3  -1 -11    2.20    2.02
   3   1 -11    2.63    1.80
   3  -1 -11    4.46    2.11
   3  -1 -11    5.58    1.80
   3   1 -11    5.32    2.26
   3  -1 -11    6.74    1.56
   3   1 -11    5.72    1.92
   3 -20  -6    0.65    1.48
   3 -20  -6   -1.03    1.24
   3  20  -6   -0.52    1.85
   3 -20  -6   -0.08    1.82
   3 -20  -6    0.10    1.09
   4  -2  -9   53.07    3.09
   4   2  -9   46.26    2.93
   4   2  -9   51.37    3.34
   4  -2  -9   55.13    3.59
   4   2  -9   55.55    3.50
   4   2  -9   42.12    3.78
   4  -2  -9   56.13    3.27
   4  -2  -9   48.59    3.76
   5   4   4    3.47    1.68
   5  -4   4    3.32    1.15
   5   4   4    4.22    1.40
   5  -4   4    3.98    1.55
   5   4   4    3.47    1.44
   5  -4   4    2.01    1.42
   5   4  -5   -0.28    1.33
   5   4  -5   -3.43    2.52
   5   4  -5    0.37    1.73
   3 -15   8   11.32    1.92
   3  15   8   10.50    1.63
  -3 -15  -8    8.43    1.28
   3 -15   8   11.36    1.66
   3 -15   8   10.48    1.17
   0 -18 -10   13.44    1.35
   0  18 -10   16.58    1.97
   0 -18 -10   17.07    1.81
   0 -18  10   15.53    1.58
   4 -10   7   35.31    1.95
   4 -10   7   29.37    1.95
   4 -10   7    3.84    2.34
   4 -10   7   33.38    2.22
   4  10   7   34.93    2.19
   2 -26   2    1.55    1.60
   2  26   2    1.81    2.06
   2 -26   2    1.63    1.15
  -2 -26  -2    3.77    1.27
   4 -15   5    2.01    2.08
   4  15   5   -0.02    1.28
   4  15   5    2.96    1.63
   4 -15   5    3.36    1.34
   4 -15   5    3.04    1.17
   3   2 -11   11.87    1.64
   3   2 -11   10.27    1.83
   3  -2 -11   11.29    1.67
   3  -2 -11    5.50    2.16
   3   2 -11    8.54    2.26
   3  -2 -11    5.85    2.10
   3   2 -11    7.45    1.86
   3  -2 -11    8.53    1.82
   2 -17   9    0.21    1.68
  -2  17  -9    1.39    0.97
  -2 -17  -9   -0.47    1.14
   2  17   9    0.17    1.45
  -2 -17  -9    2.59    1.41
   2 -17   9    0.40    0.87
   1 -28   0   26.14    2.18
  -1 -28   0   29.40    2.12
   1 -28   0   26.53    2.05
   2  18  -9   13.01    1.91
   2 -18  -9   12.25    1.66
  -2 -18   9   11.89    1.36
   2 -18  -9   14.60    2.02
   2 -18  -9   15.61    1.89
   4  -5   8   11.78    1.38
   4   5   8    8.86    1.16
   4  -5   8    5.23    1.43
   4   5   8   11.18    1.76
   4  -5   8    9.27    1.58
   4  -5   8    9.86    1.45
   4 -13   6    3.95    1.39
   4 -13   6    0.67    1.81
   4  13   6    0.18    1.14
   4  13   6    1.48    1.40
   4 -13   6    2.20    1.14
   4  13   6   -0.01    1.19
   4 -13   6    1.81    1.04
  -1 -17 -10   22.24    2.02
   1 -17  10   20.73    1.72
  -1 -17 -10   21.10    1.73
   1  17  10   26.15    2.15
  -2 -14 -10    0.99    1.53
   2  14  10    0.49    1.56
  -2 -14 -10    0.02    1.13
   2 -14  10   -0.72    1.29
   2 -14  10    0.68    0.88
  -2  14 -10    0.70    0.99
   1 -20  -9   13.19    1.48
   1  20  -9   15.62    2.08
  -1 -20   9   17.50    1.99
   1 -20  -9   15.48    1.62
   1 -20  -9   15.82    1.75
   1 -20  -9   20.07    2.04
  -1 -20   9   18.26    1.63
   0  15 -11    3.39    1.85
   0 -15 -11   -0.81    1.59
   0 -15  11    0.35    1.16
   0 -15 -11    3.29    1.01
   4  -3  -9   26.87    1.92
   4   3  -9   18.42    2.82
   4  -3  -9   25.25    2.12
   4   3  -9   20.82    2.15
   4  -3  -9   20.04    2.53
   4  -3  -9   20.08    2.80
   2  -5 -12   -0.50    1.47
   2  -5 -12    0.94    1.41
   2   5 -12   -2.87    2.06
   2   5 -12   -1.51    1.60
   2  -5 -12   -2.33    1.94
   2   5 -12   -0.02    1.38
   0 -24  -7    0.80    0.93
   0 -24  -7    0.32    1.73
   0 -24   7    3.55    1.63
   0 -24   7    0.57    1.21
   3 -12   9    3.08    1.42
   3 -12   9   -0.02    1.64
   3 -12   9    1.82    0.93
   3  12   9    3.28    1.65
  -3 -12  -9    2.11    1.08
   3 -14  -9   39.53    2.61
   3  14  -9   30.24    2.55
   3  14  -9   42.31    2.44
   3  14  -9   25.63    2.23
   3 -14  -9   30.95    2.72
   3  14  -9   33.60    2.73
   3 -14  -9   34.80    2.83
   3 -23  -3    3.73    1.41
   3 -23  -3    5.85    1.40
   3 -23  -3    3.41    1.59
  -3 -23   3    3.52    1.40
   3  23  -3    2.28    1.08
   3  23  -3    5.02    1.55
   3 -23  -3    4.32    1.58
  -3 -23   3    3.86    1.08
  -3  -7 -10    3.65    1.09
   3  -7  10    3.38    1.32
   3  -7  10    0.38    1.56
   4 -19   1   12.28    1.58
   4  19   1    7.64    1.62
   4  19   1    9.09    2.10
   4 -19   1   11.62    2.30
  -1 -22   8    9.92    1.46
  -1 -22   8   12.09    1.91
   1 -22  -8    6.90    1.26
   1 -22  -8    7.53    1.87
   1 -22  -8    9.63    1.53
   1  22  -8   11.08    2.09
   1 -28  -1    3.53    1.30
   1  28  -1    1.31    1.64
  -1 -28   1    3.36    1.24
   1 -28  -1    2.53    1.24
   1 -28  -1    5.26    1.40
  -1 -28   1    5.81    1.31
   1  28  -1    2.35    1.29
   3   3 -11   -2.44    1.66
   3   3 -11    0.54    2.09
   3   3 -11   -0.46    1.41
   3  -3 -11    0.43    1.92
   3  -3 -11    0.36    1.58
   3  -3 -11   -0.38    1.97
   3  -3 -11    0.52    1.43
   5 -11   0   10.51    1.70
   5  11   0    3.75    1.27
   5  11   0    9.62    1.88
   5  11   0    9.08    1.38
   5 -11   0    9.39    1.14
   5  11   0    7.69    1.97
   5 -11   0    1.06    2.27
   1  10 -12   26.15    1.81
   1 -10 -12   24.94    1.92
   1  10 -12   29.74    2.65
  -1 -10  12   24.38    1.79
   1 -10 -12   27.49    2.41
   5  11  -1    7.36    1.79
   5  11  -1    3.79    1.32
   5  11  -1    9.16    2.72
   5  11  -1    7.86    1.44
   5 -11  -1    1.10    2.31
   1 -28   1    5.87    1.55
  -1 -28  -1    3.47    1.27
   1 -28   1    5.82    1.16
   5  -5   4    3.36    1.11
   5  -5   4    2.81    1.34
   5   5   4    3.25    1.60
   5  -5   4    4.66    1.51
   5   5   4    2.69    1.30
   5   5   4    4.08    1.42
   5   8   3    4.28    1.40
   5  -8   3    2.32    1.09
   5   8   3    2.88    1.79
   5  -8   3   -0.22    1.88
   5  -8   3    3.43    1.29
   5  -8   3    4.02    1.52
   4 -19  -2    1.71    1.39
   4  19  -2    0.78    1.44
   4 -19  -2    0.59    1.14
   4  19  -2    2.26    1.34
   4 -19  -2    2.59    1.54
   4  19  -2    2.21    1.31
   5   5  -5    1.40    2.55
   5   5  -5   -0.52    1.69
   5   5  -5   -0.29    1.29
   5   8  -4    5.07    1.76
   5   8  -4    5.66    1.39
   5   8  -4    1.35    1.61
   5   8  -4    5.19    4.10
  -2 -24  -5    1.37    1.21
   2  24   5    3.70    1.98
   2 -24   5    3.21    1.35
  -2 -22   7    2.50    1.18
   2 -22  -7    1.50    1.40
   2 -22  -7    1.37    1.27
   2 -22  -7    0.91    1.75
   2  22  -7    0.27    1.90
   4   4  -9   -0.02    1.68
   4  -4  -9    1.60    1.56
   4  -4  -9    1.49    2.15
   4  -4  -9    0.20    1.23
   4  -4  -9    1.04    2.28
   4   4  -9   -0.38    2.24
   1 -26  -5   10.42    2.04
  -1 -26   5   11.96    1.84
   1  26  -5   11.05    2.26
   1 -26  -5   15.49    1.74
  -1 -26   5   13.43    1.55
  -1   9 -12    2.39    1.11
   1  -9  12   -1.53    1.07
  -1  -9 -12    2.93    1.60
   1  -9  12    1.71    1.11
   1   9  12   -1.43    1.65
  -1  -9 -12    3.48    1.13
   2 -10  11   20.20    1.74
  -2  10 -11   19.33    1.55
   2  10  11   19.27    2.06
  -2 -10 -11   14.73    2.06
  -2 -10 -11   21.88    1.69
   0 -11  12   14.39    1.42
   0  11 -12   12.98    2.17
   0 -11 -12   11.96    1.26
   0 -11 -12   11.12    1.88
   0  11 -12   11.39    1.42
   2 -25   4    1.86    0.93
  -2 -25  -4    1.24    1.19
   2 -25   4    1.82    1.44
   2  25   4    3.82    2.05
   0   0 -13   -0.40    0.93
   0   0 -13   -1.35    1.42
   1 -25  -6    1.32    1.15
  -1 -25   6    1.88    1.73
  -1 -25   6    0.95    1.22
   1  25  -6    2.62    2.02
   1 -25  -6    1.41    1.77
   1 -25  -6    0.69    1.35
   4  15  -6    9.54    1.54
   4 -15  -6    8.28    2.09
   4 -15  -6    7.74    1.43
   4  15  -6    6.24    1.88
   4 -15  -6    9.76    1.90
   2 -12 -11    0.14    1.32
   2  12 -11    1.93    1.81
   2 -12 -11   -0.24    1.84
   1 -14  11    4.24    1.13
  -1 -14 -11    4.87    1.17
   1  14  11    3.29    1.65
  -1  14 -11    5.04    1.19
  -1 -14 -11    4.33    1.63
   0  -1 -13    2.56    1.33
   0   1 -13    1.76    1.51
   0   1 -13    2.91    0.99
   0  -1 -13    4.00    0.98
   0   1 -13    2.05    1.01
   0  -1 -13    0.62    1.25
   3  -4 -11    1.77    1.88
   3  -4 -11    1.39    1.43
   3   4 -11    1.09    2.02
   3   4 -11    2.30    1.40
   3   4 -11    0.17    1.61
   3  -4 -11    0.57    1.91
   3  -4 -11    2.07    1.51
   4  -6   8    1.01    1.11
   4  -6   8    1.46    1.37
   4  -6   8   -0.31    1.32
   4   6   8    0.01    1.54
   4  -6   8    1.65    1.38
   3 -22   4   32.06    2.07
   3 -22   4   30.67    2.56
   3  22   4   27.93    2.65
   3 -22   4   26.01    2.10
  -3 -22  -4   30.12    2.03
   4 -18   3    0.13    0.99
   4 -18   3    0.20    1.95
   4  18   3    0.39    1.81
   4  18   3   -0.30    1.31
   4 -18   3    0.37    1.15
   2   6 -12   41.50    2.45
   2  -6 -12   39.70    2.55
   2  -6 -12   28.78    2.72
   2   6 -12   39.49    2.70
   2  -6 -12   35.46    2.52
   2   6 -12   29.29    2.89
   5 -10   2   22.15    1.49
   5 -10   2   17.61    1.73
   5  10   2   19.83    1.73
   5  10   2    6.33    1.37
   5 -10   2   21.53    1.53
   5 -10   2    2.07    2.33
   5  10   2   11.26    2.04
   5  10  -3    1.02    1.60
   5  10  -3    1.14    1.31
   5  10  -3    0.90    3.82
   5  10  -3    1.84    1.54
   2 -26  -3    1.13    1.40
   2 -26  -3    1.31    1.46
  -2 -26   3    1.24    1.20
   2 -26  -3    2.92    1.27
   2  26  -3    3.48    1.51
  -2 -26   3    2.28    1.37
   4  13  -7    2.87    1.47
   4 -13  -7    4.01    1.27
   4  13  -7    3.81    1.71
   4 -13  -7    0.63    1.86
   4 -13  -7    3.71    1.98
   4 -10  -8    1.35    1.93
   4 -10  -8    1.42    1.28
   4  10  -8    0.65    1.48
   4 -10  -8   -0.41    2.04
   4  10  -8    2.64    2.03
   4  10  -8    0.72    1.42
   0   2 -13    3.66    1.59
   0  -2 -13    3.98    0.97
   0   2 -13    1.55    1.05
   0   2 -13    2.85    1.04
   0  -2 -13    2.46    1.48
   5 -11   1    4.29    1.52
   5  11   1    1.28    1.11
   5  11   1    2.62    1.48
   5  11   1    3.38    1.80
   5 -11   1    3.53    1.01
   5 -11   1    1.65    2.21
   3 -24   0   30.98    2.14
  -3 -24   0   29.87    1.92
   3 -24   0   30.96    2.29
   3  24   0   19.57    1.95
   3  24   0   19.86    2.38
   5  11  -2    2.32    1.38
   5  11  -2    1.58    1.63
   5  11  -2    3.90    3.42
   5  11  -2   -0.34    1.21
   2 -23   6    9.31    1.62
  -2 -23  -6   14.65    1.51
   2  23   6   11.60    1.96
   2 -23   6   10.11    1.46
   2 -23   6   14.49    1.49
   4 -17   4    2.00    2.00
   4  17   4    0.29    1.30
   4 -17   4    1.94    1.09
   4 -17   4    1.60    1.15
   4  17   4    0.78    1.61
   3 -21   5    0.62    1.03
   3 -21   5    2.33    1.10
   3 -21   5    0.54    1.79
   3 -21   5    1.17    1.04
   3  21   5    0.82    1.73
  -3 -21  -5    1.78    1.06
   3 -17  -8    0.72    1.41
   3  17  -8   -0.31    1.66
   3 -17  -8    0.63    1.69
   3 -17  -8    1.13    1.73
   0 -28  -3   43.15    2.88
   0 -28  -3   56.01    3.14
   0 -28  -3   41.87    3.35
   0 -28   3   53.36    3.22
   0 -28   3   59.12    3.03
   3 -24  -1   10.63    1.71
   3  24  -1   10.46    1.76
   3 -24  -1   13.76    1.57
  -3 -24   1    9.76    1.25
   1 -18 -10   16.36    1.78
  -1 -18  10   13.83    1.66
   1 -18 -10   11.24    1.33
   1 -18 -10   13.31    1.66
   1  18 -10   13.29    1.76
  -1 -18  10   15.30    1.50
   5   6   4    0.70    1.21
   5   6   4    0.48    1.30
   5   6   4    0.02    1.50
   5  -6   4   -0.22    1.39
   5  -6   4    0.84    1.05
   5  -6   4    1.69    1.28
   3 -11 -10    4.00    1.26
   3  11 -10    7.38    1.53
   3  11 -10    6.60    1.99
   3 -11 -10    2.95    1.66
   3 -11 -10    2.05    1.99
   3  11 -10    4.24    1.32
   3 -11 -10    3.78    1.49
   5   6  -5    4.17    1.64
   5   6  -5    3.23    2.43
   5   6  -5    4.84    1.37
   1  28  -2   -1.33    1.43
  -1 -28   2   -1.24    1.20
   1 -28  -2    0.68    1.06
  -1 -28   2    0.83    1.28
   1 -28  -2    0.20    1.43
   1 -28  -2    0.73    1.27
   4  -5  -9    0.41    2.16
   4   5  -9    3.52    2.25
   4  -5  -9   -0.56    1.22
   4   5  -9    0.49    1.61
   4  -5  -9   -0.13    2.01
   4  -5  -9   -2.42    1.51
   3 -19  -7   12.88    2.07
   3  19  -7    9.38    1.93
   3 -19  -7   10.17    1.66
   3  -8  10   -0.05    1.50
   3   8  10    0.49    1.59
   3  -8  10    2.34    1.24
  -3  -8 -10    1.46    0.98
   1 -26   5    0.72    0.96
  -1 -26  -5    1.41    1.06
   1 -26   5    2.35    1.44
   1 -20   9   28.58    1.96
  -1 -20  -9   27.10    1.97
   1 -20   9   25.61    2.18
  -1 -20  -9   25.66    1.90
   1  20   9   31.32    2.13
   1 -15 -11   17.30    1.92
   1  15 -11   18.82    2.12
   1 -15 -11   15.30    1.42
  -1 -15  11   14.52    1.47
  -1 -22  -8   14.03    1.43
  -1 -22  -8   14.65    1.87
   1 -22   8   11.32    1.44
   1 -22   8   14.52    1.35
   1  22   8   10.87    1.73
   1  27  -4    9.57    1.97
  -1 -27   4   11.92    1.47
   1 -27  -4    6.38    1.83
   1 -27  -4   10.71    1.57
  -1 -27   4    8.44    1.72
   0  -3 -13   17.20    1.92
   0   3 -13   18.12    2.04
   0   3 -13   18.58    1.52
   0  -3 -13   22.26    1.47
   0   3 -13   14.77    1.56
   4 -11   7    0.94    1.39
   4  11   7    1.01    1.38
   4 -11   7   -0.49    1.66
   4 -11   7    1.37    1.08
   4 -18  -4   28.44    2.25
   4  18  -4   30.12    2.48
   4  18  -4   29.45    2.26
   4 -18  -4   35.93    2.42
   4 -18  -4   31.86    2.53
   3  23   3    0.02    1.26
   3 -23   3    0.92    1.12
  -3 -23  -3    0.66    1.04
   3 -23   3    1.86    1.32
   3  23   3    1.25    1.83
   3 -23   3    2.06    1.76
   3   5 -11    1.73    1.52
   3  -5 -11    0.64    1.43
   3   5 -11   -1.59    1.33
   3   5 -11    0.27    2.09
   3  -5 -11   -0.93    1.82
   3  -5 -11    0.60    1.48
   3  -5 -11    0.47    1.83
  -3 -18  -7    0.18    1.06
   3 -18   7    0.60    1.33
   3 -18   7   -0.75    0.92
   3 -18   7   -0.72    1.65
   3  18   7   -0.44    1.35
  -1 -28  -2    2.23    1.10
   1 -28   2    2.16    1.50
   4  19   2    3.52    1.81
   4 -19   2    4.34    1.22
   4 -19   2    3.42    1.24
   4 -19   2    6.65    2.10
   4  19   2    1.76    1.35
   1 -25   6    2.42    0.98
  -1 -25  -6    1.79    1.09
   1 -25   6    1.98    1.42
   3 -24   1   -0.93    1.20
  -3 -24  -1    0.42    1.00
   3 -24   1   -0.40    1.43
   3  24   1    0.33    1.72
   3  24   1    1.01    1.14
   2 -16 -10    7.61    1.42
   2  16 -10    8.06    1.66
   2 -16 -10    7.53    1.78
   2 -16 -10    7.53    1.62
   2   0  12   23.27    2.12
  -2   0 -12   36.88    2.07
   5  -9   3    3.93    1.23
   5  -9   3    4.93    1.10
   5   9   3    4.01    1.29
   5   9   3    3.27    1.68
   5  -9   3    4.06    1.46
   5  -9   3    6.11    2.06
   0 -21  -9    5.04    1.54
   0  21  -9    4.32    1.69
   0 -21   9    4.48    1.25
   0 -21   9    4.20    1.29
   5   9  -4   -0.09    1.55
   5   9  -4    1.13    1.27
   1 -24  -7   43.37    2.66
  -1 -24   7   43.04    2.54
  -1 -24   7   41.90    2.85
   1 -24  -7   38.07    2.94
   1  24  -7   40.76    3.16
   2   1  12    5.49    1.54
  -2  -1 -12   10.96    1.18
  -2   1 -12   10.57    1.16
  -2  -1 -12    6.34    1.42
   4   7   8   -0.17    1.48
   4  -7   8    0.48    1.36
   4  -7   8    1.08    1.20
   4  -7   8    0.99    1.23
   4  -7   8    0.69    1.08
   4  17  -5   11.59    1.53
   4 -17  -5   13.28    1.66
   4 -17  -5   10.01    1.95
   4 -17  -5    9.68    1.45
   4  17  -5    9.37    1.87
   2 -26   3   -0.51    1.48
   2 -26   3    0.20    0.98
   2  26   3   -2.30    1.94
  -2 -26  -3    0.54    1.12
   1   0 -13    6.32    1.30
   1   0 -13    4.82    1.59
   2   7 -12    0.67    1.49
   2   7 -12    0.58    1.92
   2  -7 -12    0.82    1.30
   2  -7 -12   -0.61    1.84
   2  -7 -12    0.08    1.34
   1  11 -12    2.70    1.02
  -1 -11  12    3.99    1.04
   1 -11 -12    2.66    1.09
   1 -11 -12    2.43    1.63
   1  11 -12    3.22    1.79
   0   4 -13   45.01    2.64
   0   4 -13   37.01    2.70
   0  -4 -13   45.65    2.94
   0   4 -13   39.60    3.10
   2 -20   8   12.93    1.76
  -2 -20  -8   14.49    1.50
   1  -1 -13    1.61    1.21
   1  -1 -13    2.18    1.45
   1   1 -13   -0.50    1.23
   1  -1 -13    0.62    1.42
   1   1 -13    1.80    1.55
   4  19  -3   -0.03    1.20
   4 -19  -3    0.38    1.44
   4 -19  -3    0.62    1.45
   4  19  -3   -0.35    1.32
   4 -19  -3   -0.70    1.06
  -1 -27  -4    4.55    1.14
   1 -27   4    3.26    1.48
  -1 -27  -4    3.47    1.21
  -2   2 -12    5.79    1.03
  -2  -2 -12    5.34    1.06
   2   2  12    3.11    1.50
   3 -13   9    3.74    1.34
   3 -13   9    0.85    1.66
  -3 -13  -9    2.43    1.01
   4 -14   6    0.73    1.01
   4  14   6    0.72    1.31
   4 -14   6    0.36    1.29
   4 -14   6    0.61    1.81
   4  14   6   -0.50    1.13
   5 -12   0    6.48    1.02
   5  12   0    7.56    2.36
   5  12   0    5.22    1.75
   5 -12   0    1.79    2.12
   5  12   0    3.74    1.23
   5  12  -1    8.71    1.40
   5  12  -1   12.06    1.45
   5  12  -1   11.87    3.14
   5  12  -1    8.80    1.82
   1 -10  12   50.87    2.67
  -1 -10 -12   38.18    2.95
  -1 -10 -12   53.02    2.70
   1 -10  12   36.71    2.56
  -1  10 -12   45.47    2.67
   1  10  12   38.03    2.82
   3 -24  -2    1.72    1.27
  -3 -24   2    2.80    0.99
   3  24  -2    0.48    1.23
   3 -24  -2    2.15    1.44
   0 -23   8    3.91    1.43
   0 -23  -8    4.83    1.63
   0 -23   8    4.98    1.23
  -2 -27   0   35.51    2.35
   2 -27   0   38.15    2.40
   2  27   0   35.01    2.79
   2 -27   0   34.18    2.53
   4   6  -9    5.74    1.67
   4  -6  -9    7.04    1.48
   4  -6  -9    6.11    2.12
   4   6  -9    6.26    2.25
   4  -6  -9    7.42    1.31
   4  -6  -9    6.06    2.16
  -3 -16  -8   19.31    1.59
   3  16   8   17.22    1.66
   3 -16   8   22.70    1.86
   3 -16   8   16.89    2.08
   0 -29   0    0.35    0.98
   0 -29   0   -0.47    1.11
   1  -2 -13    9.17    1.65
   1  -2 -13    6.94    1.27
   1   2 -13    7.20    1.40
   1   2 -13    7.70    1.76
   5   0   5   53.28    3.02
   5   0   5   45.88    3.02
   3 -22  -5    2.38    1.71
   3  22  -5    1.78    1.66
   3 -22  -5    3.29    1.24
   3 -22  -5    3.06    1.17
   3 -22  -5    3.16    1.48
   5   7   4   15.22    1.84
   5  -7   4   16.93    1.43
   5  -7   4   17.09    1.69
   5  -7   4   12.84    1.59
   5   7   4   16.50    1.57
   5   7   4   14.05    1.50
   5  -7   4   11.14    1.81
   5   0  -6   -1.01    1.24
   5   0  -6    0.03    2.41
   5   0  -6    0.28    1.52
  -2  15 -10   -0.08    0.91
   2 -15  10    0.28    1.71
  -2 -15 -10    0.58    1.07
   2  15  10    1.73    1.55
  -2 -15 -10    2.10    1.42
   2 -15  10    0.92    0.85
   2 -15  10   -0.79    1.27
  -2 -11 -11   -0.15    1.51
  -2  11 -11    0.25    0.92
  -2 -11 -11    0.63    1.11
   2 -11  11    1.41    1.22
   4 -16   5    0.28    1.96
   4 -16   5    0.93    1.02
   4  16   5    0.42    1.42
   4 -16   5    2.09    1.16
   4  16   5   -0.53    1.11
   5   7  -5    2.46    2.14
   5   7  -5    1.43    1.24
   5   7  -5   -0.55    1.52
   5   1   5   10.71    1.53
   5   1   5   11.72    1.66
   5  -1   5   12.52    1.65
   3 -20   6   36.70    2.15
   3 -20   6   39.01    2.33
   3 -20   6   37.97    2.68
  -3 -20  -6   34.32    2.22
   5  -1  -6    0.03    2.41
   5   1  -6    1.09    1.29
   5  -1  -6   -1.75    1.63
   5   1  -6    0.02    1.53
   5   1  -6   -2.45    2.45
   3  -6 -11   17.36    1.76
   3   6 -11   15.18    1.69
   3  -6 -11   16.30    1.77
   3   6 -11   12.49    2.36
   3   6 -11   15.40    1.81
   3  -6 -11   10.24    2.09
   2 -27  -1    0.27    1.22
  -2 -27   1    0.80    1.12
   2 -27  -1    1.52    1.31
   3  15  -9   23.59    2.25
   3 -15  -9   31.57    2.53
   3 -15  -9   26.50    2.47
   3 -15  -9   32.43    2.31
   2   3  12   29.36    2.46
  -2   3 -12   42.01    2.21
  -2  -3 -12   40.55    2.26
  -2  -3 -12   22.49    2.41
   0 -12 -12   10.54    1.69
   0  12 -12   12.58    1.33
   0 -12 -12   10.12    1.16
   0  12 -12   11.74    2.08
   0 -12  12    9.71    1.30
   0  16 -11   81.48    4.39
   0 -16  11   75.58    4.01
   4 -20   0    5.94    1.97
   4  20   0    5.28    1.34
   4 -20   0    8.84    1.46
   4 -20   0    6.95    1.27
   4  20   0    4.30    1.58
   5  -2   5    5.93    1.14
   5   2   5    6.39    1.49
   5  -2   5    6.33    1.40
   5   2   5    3.42    1.25
   5  -2   5    3.13    1.43
   5 -11   2    0.79    2.15
   5 -11   2    3.67    1.40
   5  11   2    0.41    0.99
   5 -11   2    2.98    1.01
   5  11   2    2.71    1.32
   5  11   2    4.06    1.79
   3  23  -4    3.22    1.53
  -3 -23   4    4.23    1.45
   3 -23  -4    2.73    1.29
   3 -23  -4    4.42    1.49
   3 -23  -4    3.21    1.54
   3 -23  -4    4.64    1.26
   5  -2  -6    3.56    2.33
   5   2  -6    2.83    2.35
   5   2  -6    5.41    1.39
   5   2  -6    4.62    1.57
   0 -29  -1   -0.60    0.97
   0 -29   1   -0.84    1.01
   0 -29   1    0.27    1.24
   5  11  -3    0.17    1.54
   5  11  -3    2.87    3.85
   5  11  -3   -0.90    1.43
   5  11  -3    0.74    1.25
   4  20  -1    2.20    1.24
   4 -20  -1    2.15    1.29
   4 -20  -1    1.80    1.89
   4  20  -1    2.36    1.54
   4 -20  -1    3.90    1.17
   1  -3 -13    4.99    1.59
   1  -3 -13    4.26    1.23
   1   3 -13    3.22    1.69
   1   3 -13    4.79    1.35
  -2 -18  -9    2.82    1.27
   2  18   9    3.99    1.33
  -2 -18  -9    1.36    1.12
   2 -18   9    2.79    1.60
   3  -9  10    0.40    1.47
  -3  -9 -10    0.60    0.95
   3  -9  10    0.03    1.19
   3   9  10    1.08    1.50
   4 -11  -8   33.00    2.85
   4  11  -8   28.80    2.45
   4 -11  -8   33.35    2.32
   4 -11  -8   35.36    2.78
   4  11  -8   26.86    2.68
   0   5 -13   12.79    1.97
   0   5 -13    9.92    1.40
   0  -5 -13   14.46    1.74
   0  -5 -13   16.23    1.25
   0   5 -13   12.90    1.25
   2 -22   7   45.29    2.53
   2 -22   7   32.44    2.48
   2  22   7   27.55    2.61
  -2 -22  -7   41.65    2.46
   2  27   1   -0.22    1.74
   2 -27   1   -0.91    1.10
   2 -27   1    0.02    1.43
  -2 -27  -1    0.02    1.14
   0 -19  10    1.12    1.09
   0 -19 -10    2.05    1.29
   2 -13 -11   17.23    2.18
   2  13 -11   21.93    2.21
   2 -13 -11   19.68    1.80
  -1 -18 -10    7.29    1.15
  -1 -18 -10    5.08    1.32
   1 -18  10    7.10    1.15
  -1  18 -10    6.88    1.84
   1  18  10    8.90    1.59
   2 -21  -8   38.36    2.58
   2  21  -8   42.13    2.97
  -2 -21   8   37.58    2.37
   2 -21  -8   39.16    2.90
   2 -25  -5   31.51    2.23
   2 -25  -5   27.92    2.24
  -2 -25   5   30.75    2.04
  -2 -25   5   26.66    2.30
   2  25  -5   30.91    2.53
   2 -25  -5   28.61    2.46
   1  24   7   55.85    3.74
  -1 -24  -7   58.54    3.39
   1 -24   7   56.90    3.45
   1 -24   7   65.69    3.32
   2 -19  -9   13.55    1.60
   2  19  -9   14.75    1.88
  -2 -19   9   11.77    1.28
   2 -19  -9   13.00    1.84
   3 -21  -6    9.93    1.81
   3  21  -6    9.40    1.87
   3 -21  -6   12.00    1.66
   3 -21  -6   10.30    1.29
   5 -12   1   -0.13    2.03
   5 -12   1   -1.12    1.40
   5 -12   1    0.19    0.93
   5  12   1   -1.79    1.70
   5  12   1    0.91    1.06
   5  12   1   -0.02    1.65
   5  12  -2    0.85    1.31
   5  12  -2    1.30    1.19
   5  12  -2    4.78    3.70
   5  12  -2    0.83    1.52
   5  -3   5    0.23    1.23
   5   3   5    2.52    1.34
   5   3   5    1.04    1.15
   5  -3   5    0.26    1.27
   5  -3   5    0.65    1.04
   0 -27  -5    3.76    1.68
   0 -27   5    6.02    1.57
   0 -27   5    5.36    1.18
   0 -27  -5    4.58    1.35
  -2   4 -12    5.61    1.01
   2   4  12    4.08    1.59
  -2  -4 -12    1.28    1.46
  -2  -4 -12    4.27    1.05
  -2 -24   6    6.10    1.78
   2  24  -6    7.23    1.87
   2 -24  -6    7.77    1.36
   2 -24  -6    7.45    1.44
  -2 -24   6    7.48    1.22
   2 -24  -6    5.97    1.76
   5   3  -6   -0.09    2.29
   5   3  -6    0.02    1.53
   5   3  -6   -0.28    1.29
   0 -26  -6    1.31    1.27
   0 -26   6    0.34    1.48
   0 -26  -6   -1.60    1.61
   0 -26   6    1.32    1.09
   4  -8   8    1.30    1.06
   4  -8   8    0.93    1.05
   4  -8   8    1.09    1.25
   4  -8   8    0.18    1.44
   4   8   8    0.98    1.46
   3 -24   2    0.36    1.13
  -3 -24  -2   -0.37    0.98
   3  24   2    1.73    1.72
   3 -24   2    0.33    1.31
   3  24   2    0.14    1.13
  -1  15 -11   16.64    2.25
  -1 -15 -11   12.22    1.35
  -1  15 -11   15.04    1.42
   1  15  11   14.70    1.75
  -1 -15 -11   11.19    1.68
   1 -15  11   12.95    1.32
   3 -12 -10    6.09    1.89
   3  12 -10    4.48    1.90
   3 -12 -10    6.33    1.59
   3 -12 -10    5.78    1.46
   2   8 -12   23.36    2.48
   2  -8 -12   26.43    2.02
   2  -8 -12   23.09    2.31
   2   8 -12   28.43    2.23
   4 -14  -7    5.23    1.88
   4  14  -7    6.26    1.71
   4 -14  -7    5.41    1.30
   4  14  -7    5.75    1.41
   4 -14  -7    7.31    1.86
   1 -28  -3    1.75    1.44
  -1 -28   3    0.02    1.15
  -1 -28   3    1.07    1.29
   1 -28  -3    1.16    1.24
   1  28  -3    0.52    1.50
   4  16  -6    2.45    1.24
   4  16  -6    3.21    1.63
   4 -16  -6    3.13    1.26
   4 -16  -6    2.26    1.80
   1   4 -13    1.03    1.31
   1  -4 -13    1.77    1.54
   1  -4 -13    0.34    1.10
   1   4 -13    0.60    1.61
   4   7  -9   18.98    2.56
   4  -7  -9   27.42    2.55
   4  -7  -9   23.13    1.86
   4   7  -9   24.18    2.11
   4  -7  -9   25.31    1.89
   5 -10   3    2.04    1.11
   5  10   3    1.04    1.56
   5 -10   3    0.83    1.88
   5 -10   3    3.92    1.01
   5  10   3    2.88    1.19
   5 -10   3    3.44    1.38
   4 -20   1    0.96    1.19
   4  20   1    0.15    1.26
   4 -20   1   -0.38    1.95
   4  20   1   -1.45    1.60
   4 -20   1    0.31    1.10
   1 -21  -9   18.09    1.61
  -1 -21   9   17.90    1.88
   1 -21  -9   17.86    1.92
   1  21  -9   15.21    2.04
  -1 -21   9   21.86    1.68
   5  10  -4    3.92    1.58
   5  10  -4    6.34    1.30
   4  12   7   28.48    1.92
   4 -12   7   27.84    1.81
   4 -12   7   31.42    2.07
   2 -27  -2    0.08    1.20
  -2 -27   2    0.16    1.09
   2 -27  -2    0.57    1.19
   3   7 -11   -0.16    1.20
   3  -7 -11    1.05    1.89
   3  -7 -11   -0.99    1.31
   3   7 -11   -3.09    1.99
   3  -7 -11    1.04    1.35
   3   7 -11    0.21    1.47
   5  -8   4    3.80    1.10
   5   8   4    3.91    1.43
   5  -8   4    1.86    1.61
   5   8   4    4.64    1.20
   5  -8   4    5.43    1.30
   5  -8   4    4.25    1.38
   4  20  -2    3.82    1.25
   4 -20  -2    3.49    1.36
   4  20  -2    4.47    1.21
   4 -20  -2    4.03    1.14
   5   8  -5    0.79    1.58
   5   8  -5    0.52    1.25
   5   4   5    0.25    1.32
   5  -4   5    0.33    1.31
   5  -4   5    0.24    1.01
   5   4   5   -0.63    1.10
   5  -4   5   -1.11    1.23
  -2 -26   4   34.68    2.15
   2  26  -4   30.30    2.46
  -2 -26   4   26.65    2.27
   2 -26  -4   35.20    2.29
   2 -26  -4   26.86    2.38
   5   4  -6    9.13    1.40
   5   4  -6    4.65    2.35
   5   4  -6    7.27    1.63
   0   6 -13    9.18    1.16
   0  -6 -13   10.51    1.62
   0   6  13    5.35    1.43
   0   6 -13    8.90    1.81
   0  -6 -13   13.20    1.15
   0   6 -13    9.44    1.32
  -1 -28  -3   -0.21    1.04
   1 -28   3   -0.96    1.42
   2   5  12   14.77    1.86
  -2   5 -12   19.63    1.40
  -2  -5 -12   18.62    1.47
  -1 -23   8   10.67    1.69
   1 -23  -8   10.10    1.41
  -1 -23   8    9.95    1.34
   1  23  -8   11.75    1.93
   1 -23  -8    9.68    1.74
   0 -29  -2    1.34    1.41
   0 -29   2    4.58    1.36
   0 -29  -2    3.47    1.10
   0 -29   2    2.89    1.02
  -1 -12  12    0.65    0.93
   1 -12 -12   -0.02    1.51
   1  12 -12    0.20    1.70
   1  12 -12    0.80    0.96
  -1  11 -12    3.94    1.10
  -1 -11 -12    4.68    1.06
   1  11  12    2.28    1.53
  -1  11 -12    5.98    2.05
   1 -11  12    5.07    1.07
  -1 -11 -12    4.80    1.49
   4 -19   3   24.41    2.33
   4  19   3   20.26    2.22
   3 -24  -3    0.68    1.13
   3 -24  -3   -0.36    1.23
   3  24  -3   -1.32    1.32
  -1 -16  11   12.74    1.40
   1 -16 -11   15.76    1.83
   0 -28   4    0.88    1.39
   0 -28  -4   -1.15    1.53
   0 -28   4    1.23    1.06
   0 -28  -4    0.78    1.15
   1   5 -13   -0.98    1.33
   1  -5 -13    0.52    1.52
   1  -5 -13    0.93    1.03
   1   5 -13   -1.41    1.68
  -1   0 -13    8.09    1.09
   4  18   4    6.13    1.64
   4 -18   4    8.60    1.22
   4 -18   4    8.93    2.00
   3 -18  -8   11.72    1.86
   3  18  -8   12.86    1.81
   3 -18  -8   13.22    1.67
  -1   1 -13    3.18    0.95
  -1  -1 -13    3.00    0.95
   0 -25  -7   33.75    2.31
   0 -25   7   32.38    2.39
   0 -25   7   34.78    2.17
   0 -25  -7   26.82    2.49
  -2 -27  -2   -0.55    1.04
   2 -27   2   -0.02    1.36
   2  27   2    0.43    1.68
   2 -27   2    1.15    1.01
   5  13   0    0.90    2.64
   5  13   0   -0.81    1.58
   5 -13   0   -0.28    1.97
   5  13   0   -0.64    1.08
   5  13  -1    2.08    3.18
   5  13  -1    0.70    1.50
   5  13  -1   -0.09    1.10
   2  12  11    9.18    1.60
  -2 -12 -11    8.10    1.18
  -2  12 -11    9.37    1.10
  -2 -12 -11    7.01    1.55
   2 -12  11    8.72    1.33
  -2 -23   7   24.59    2.28
   2 -23  -7   26.62    2.29
   2 -23  -7   24.09    1.95
   2  23  -7   24.77    2.37
  -2 -23   7   22.76    1.75
   2 -23  -7   24.02    1.84
  -1 -19  10    3.44    1.11
  -3 -10 -10   -0.01    0.90
   3 -10  10   -0.44    1.16
   3 -10  10   -0.26    1.45
   3  10  10    0.93    1.41
   5  -5   5    1.63    1.01
   5  -5   5    0.86    1.21
   5  -5   5    0.72    1.26
   5   5   5    2.51    1.24
   5   5   5    2.30    1.14
  -1  -2 -13    9.81    1.13
  -1   2 -13    9.88    1.14
  -3 -14  -9    0.50    0.90
   3 -14   9    0.46    1.25
   3 -14   9    0.31    1.48
   3  14   9    0.39    1.45
   5   5  -6   -1.02    2.19
   5   5  -6   -1.06    1.48
   5   5  -6    0.58    1.27
   2 -17 -10    0.87    1.18
   2 -17 -10    0.92    1.56
  -2 -25  -5    3.93    1.10
   2  25   5    4.47    1.70
   2 -25   5    4.18    1.27
   4  -9   8   16.93    1.63
   4   9   8   18.74    1.72
   4  -9   8   17.48    1.41
   4  15   6    5.62    1.35
   4 -15   6    0.80    1.85
   4  15   6    1.34    1.11
   4 -15   6    9.58    1.33
   4 -15   6    8.20    1.09
   4   8  -9    5.25    2.08
   4   8  -9    3.88    1.48
   4  -8  -9    3.02    1.17
   4  -8  -9    5.83    2.02
   3 -20  -7    0.40    1.30
   3 -20  -7    0.65    1.65
   3  20  -7    0.54    1.55
   4  19  -4    1.60    1.39
   4 -19  -4    0.76    1.14
   4  19  -4   -0.81    1.16
   4 -19  -4   -0.72    1.28
   4 -19  -4    0.07    1.50
   5  12   2    0.02    1.57
   5  12   2    0.57    0.95
   5  12   2    0.32    1.40
   5 -12   2    0.05    1.32
   5 -12   2    0.07    0.94
   3 -23   4    0.27    0.93
   3  23   4   -1.22    1.54
  -3 -23  -4    0.97    0.96
   3  23   4   -0.91    1.19
   3 -23   4    0.41    1.11
   1 -29   0    2.26    1.22
  -1 -29   0    2.69    1.10
   5  12  -3    1.14    1.33
   5  12  -3    1.09    1.18
   0  13 -12   -0.42    1.70
   0 -13 -12   -0.61    1.39
   0  13 -12   -0.16    1.00
   0 -13  12   -0.93    0.98
   2  -9 -12   17.80    2.12
   2   9 -12   16.62    1.81
   2  -9 -12   17.24    1.65
   2   9 -12   17.83    2.12
   4 -12  -8    3.75    1.93
   4  12  -8    6.34    1.66
   4 -12  -8    4.01    1.45
   4  12  -8    2.04    1.57
  -3 -19  -7    7.98    1.14
   3 -19   7    8.74    1.36
   3 -19   7   10.75    1.68
   3 -22   5   -0.36    1.68
  -3 -22  -5    0.70    0.92
   3  22   5   -0.43    1.51
   3   0  11   59.81    3.37
  -2  -6 -12    3.73    1.01
  -2  -6 -12    2.46    1.39
   2   6  12    3.65    1.48
  -2   6 -12    6.05    0.97
   0   7 -13    7.66    1.02
   0   7  13    3.13    1.43
   0   7 -13    6.37    1.71
   0  -7 -13    8.31    1.55
   3  -8 -11    2.70    1.83
   3  -8 -11    2.95    1.29
   3   8 -11    5.02    1.45
   3   8 -11    1.53    1.91
   3  -8 -11    7.71    1.40
   3   8 -11    2.36    1.19
  -1   3 -13   15.37    1.33
  -1  -3 -13   17.36    1.35
   1 -21   9   -0.29    0.93
  -1 -21  -9    0.22    0.93
   4 -18  -5    3.98    1.63
   4 -18  -5    3.15    1.19
   4  18  -5    4.17    1.19
   4 -18  -5    2.28    1.30
   4  18  -5    4.67    1.54
   3  -1  11   14.83    1.63
   3   1  11   17.81    1.79
   4 -20   2    3.13    1.11
   4  20   2    0.47    1.17
   4 -20   2    1.25    1.89
   4  20   2    0.13    1.59
  -1 -29   1   26.62    1.91
   1 -29  -1   26.74    1.90
   2  26   4   16.00    2.16
   2 -26   4   15.76    1.68
  -2 -26  -4   18.54    1.51
  -2 -16 -10    0.01    0.99
   2 -16  10   -0.61    1.52
   2 -16  10    0.71    1.21
   2  16  10   -0.72    1.36
  -2 -16 -10    0.44    1.22
   1 -26  -6    1.63    1.58
  -1 -26   6    2.59    1.11
  -1 -26   6    3.72    1.52
   1  26  -6    1.82    1.75
   1 -26  -6    3.37    1.20
   1   6 -13   21.97    1.88
   1  -6 -13   23.12    2.05
   1   6 -13   20.13    2.16
  -1 -27   5   -1.23    1.11
  -1 -27   5   -0.03    1.38
   1  27  -5    0.91    1.67
   1 -27  -5   -2.27    1.61
   1 -27  -5   -0.56    1.23
   5  -9   4    0.31    1.14
   5  -9   4    0.01    1.26
   5  -9   4    0.10    0.96
   5   9   4    1.31    1.37
   5   9   4   -0.16    1.09
   4   0   9    1.75    1.37
   3 -17   8   -0.18    1.50
  -3 -17  -8   -0.73    0.92
   3 -17   8    0.97    1.22
  -2 -24  -6    4.87    1.13
   2  24   6    3.42    1.60
   5   9  -5   27.30    2.06
   5   9  -5   28.46    2.30
   5  13   1   -0.33    1.01
   5  13   1   -1.10    2.15
   5 -13   1   -0.45    0.91
   5  13   1   -2.07    1.57
   5 -13   1   -0.09    1.87
   3 -16  -9    0.78    1.70
   3 -16  -9    0.73    1.29
   3  16  -9    1.72    1.35
   3 -16  -9    1.61    1.63
   5  13  -2   12.48    1.45
   5  13  -2   10.55    1.41
   5  13  -2    9.28    1.63
   2 -14 -11    4.25    1.60
   2 -14 -11    3.83    1.16
   2  14 -11    3.01    1.64
   3   2  11    8.20    1.53
   1 -29   1   -0.23    1.21
  -1 -29  -1   -0.13    1.02
   1  29   1   -0.58    1.76
   4   1   9   -0.12    1.33
   4  -1   9   -0.64    1.27
   5 -11   3   10.13    1.13
   5  11   3    9.29    1.32
   5  11   3    6.94    1.64
   5 -11   3    9.34    1.43
   4  17   5    0.12    1.07
   4  17   5    0.15    1.34
   4 -17   5   -0.79    0.96
   4 -17   5    0.54    1.81
   5  11  -4    7.12    1.30
   5  11  -4    5.24    1.46
   3 -25   0    2.82    1.35
   3 -25   0    3.54    1.19
   3  25   0    2.31    1.50
   1 -23   8   19.37    1.46
  -1 -23  -8   18.41    1.84
  -1 -23  -8   18.06    1.50
   3 -13 -10    0.67    1.74
   3 -13 -10    1.90    1.29
   3  13 -10    1.61    1.71
   5  -6   5    1.21    1.14
   5  -6   5    0.12    1.22
   5   6   5    0.56    1.14
   5   6   5   -0.47    1.04
   5  -6   5    0.22    0.98
   3 -25  -1    2.11    1.29
   3 -25  -1    2.29    1.18
   4  20  -3    1.02    1.21
   4 -20  -3    3.58    1.30
   4  20  -3    1.43    1.11
   0 -17  11    1.92    1.04
   0  17 -11    2.58    1.49
   0 -17 -11    1.03    1.25
   4  -2   9   13.11    1.50
   4   2   9   12.65    1.57
   4  -2   9   11.00    1.26
   5   6  -6    3.11    1.26
   5   6  -6    3.61    1.45
   5   6  -6    2.79    2.11
   0 -22   9   10.20    1.27
   0 -22  -9   11.67    1.42
  -1   4 -13    0.50    1.45
  -1  -4 -13    2.54    0.95
  -1   4 -13    2.72    0.95
   2 -27  -3    1.99    1.19
  -2 -27   3    2.40    1.04
   2  27  -3    1.20    1.28
  -3 -24  -3   13.23    1.21
   3 -24   3   13.93    1.27
   3 -24   3   13.09    1.48
   2 -21   8    3.87    1.37
  -2 -21  -8    3.98    1.08
   2 -21   8    4.57    1.22
   4 -13   7    9.03    1.36
   4 -13   7   10.12    1.17
   3   3  11   -0.45    1.37
   4  15  -7    5.33    1.30
   4 -15  -7    3.98    1.20
   4 -15  -7    7.26    1.81
   4  15  -7    4.74    1.52
   4   3   9    0.65    1.33
   4  -3   9    0.60    1.21
   4  -3   9    0.49    1.04
  -1 -16 -11   19.99    1.79
  -1 -16 -11   18.57    1.53
   1  16  11   20.49    1.82
   1 -16  11   18.62    1.52
  -1  16 -11   25.34    2.29
  -1  16 -11   22.40    1.56
   3  25   1    0.67    1.51
   3 -25   1   -0.11    1.24
   3 -25   1    0.72    1.03
  -1 -27  -5   -0.69    0.93
   1 -27   5   -0.36    1.24
  -1 -27  -5   -0.22    1.07
  -2 -19  -9    1.74    0.99
   2 -19   9    2.07    1.19
  -1 -12 -12    4.22    1.01
   1  12  12    4.96    1.45
   1 -12  12    3.90    1.01
  -1 -12 -12    5.07    1.42
  -1  12 -12    4.12    1.87
  -1  12 -12    6.21    1.06
   2   7  12    1.14    1.38
  -2  -7 -12    0.96    0.91
  -2  -7 -12    1.05    1.32
  -2   7 -12   -0.01    0.81
   3  21   6   -0.72    1.32
  -3 -21  -6    0.31    0.88
   3 -21   6    0.43    1.54
   1 -25  -7    0.45    1.16
  -1 -25   7   -0.81    1.07
   1 -25  -7    0.48    1.44
   1  25  -7    0.64    1.62
  -1 -25   7    0.18    1.41
   1  26   6    1.73    1.63
  -1 -26  -6    0.25    0.92
   1 -26   6    0.96    1.20
   0 -29  -3    0.90    1.38
   0 -29   3    1.27    0.94
   0 -29  -3    0.43    1.05
   0 -29   3    0.74    1.26
  -1 -19 -10    0.88    0.89
   1  19  10    2.42    1.38
   1 -19  10   -0.91    0.89
   4  -9  -9    5.82    1.90
   4   9  -9    2.99    1.86
   4   9  -9    5.07    1.39
   1 -13 -12   87.66    5.01
   1  13 -12   96.00    5.11
  -1 -28   4   35.75    2.18
  -1 -28   4   31.61    2.32
   1  28  -4   32.67    2.56
   1 -28  -4   38.46    2.32
   0   8  13    1.32    1.40
   0   8 -13    0.45    1.54
   0  -8 -13   -0.90    1.35
   0   8 -13    0.21    0.90
   4 -21   0   15.74    1.92
   4 -21   0   17.18    1.57
   4  21   0   13.16    1.71
   4 -21   0   18.16    1.45
   4 -17  -6    0.54    1.58
   4  17  -6    0.48    1.12
   4  17  -6    0.52    1.44
   1   7 -13    9.26    1.83
   1   7 -13    9.53    1.41
   1  -7 -13    8.73    1.60
   0 -20  10    1.69    1.01
   1 -29  -2   10.60    1.32
  -1 -29   2   11.41    1.30
   3 -23  -5    2.66    1.28
  -3 -23   5    1.23    1.42
   3  23  -5    1.42    1.44
   3 -23  -5    0.57    1.43
   3 -11  10    1.68    1.12
   3  11  10    2.10    1.30
   3 -11  10    0.41    1.36
  -3 -11 -10    2.68    0.91
   3   4  11    3.81    1.36
   4 -21  -1    2.11    1.04
   4  21  -1    1.17    1.06
   4 -21  -1    2.01    1.26
   4 -10   8    1.96    0.91
   4 -10   8    0.17    1.20
  -1   5 -13    3.34    0.93
  -1  -5 -13    2.44    1.27
  -1   5 -13    1.90    1.48
  -1  -5 -13    3.11    0.92
   0 -24  -8   16.60    1.85
   0 -24   8   18.19    1.47
   0  24  -8   15.92    2.07
   0 -24   8   16.18    1.60
   0 -24  -8   17.28    1.60
  -2 -20   9   15.32    1.84
   2 -20  -9   13.88    1.48
   2 -20  -9   14.70    1.72
   3  -9 -11   14.10    1.55
   3  -9 -11   11.06    1.42
   3   9 -11   11.45    2.15
   3  -9 -11   13.92    1.94
   2 -10 -12    0.02    1.63
   2 -10 -12    1.79    1.20
   2  10 -12    0.07    1.28
   2  10 -12    2.21    1.63
   3 -25  -2   11.24    1.31
   3 -25  -2    7.82    1.37
   4  -4   9    7.16    1.15
   4   4   9    4.68    1.37
   2 -27   3   28.08    2.12
  -2 -27  -3   31.93    1.99
  -2 -13 -11   42.56    2.23
   2  13  11   44.28    2.43
   2 -13  11   42.57    2.33
   1 -29   2    2.69    1.30
   1  29   2   -0.22    1.78
  -1 -29  -2    1.26    0.99
   5  -7   5    2.34    0.96
   5   7   5    1.88    1.01
   5  -7   5    2.27    1.13
   5  -7   5    1.05    1.19
   5   7  -6    0.85    1.19
   5   7  -6   -0.72    1.35
   2  22  -8   11.62    1.73
   2 -22  -8   10.22    1.68
   2 -22  -8   10.25    1.38
  -2 -22   8    9.75    1.73
   5 -14   0    1.51    1.95
   5  14   0    4.22    1.55
   5  14   0    3.19    1.09
   5  14   0    3.79    2.66
   5  14  -1    7.47    1.28
   5  14  -1    8.88    1.59
  -2 -23  -7    7.51    1.12
   3 -22  -6   -0.30    1.24
   3 -22  -6   -0.97    1.42
   3  22  -6    0.12    1.47
   5 -10   4    3.73    1.24
   5  10   4    2.19    1.33
   5 -10   4    5.36    0.98
   3  24  -4    1.66    1.32
   3 -24  -4    1.31    1.05
   4   0 -10   13.74    2.42
   4   0 -10   21.41    1.92
   5  10  -5    2.68    1.44
   5  10  -5    2.34    1.16
  -1 -28  -4   73.54    3.93
   1 -28   4   74.84    4.11
   5  13   2   -1.14    1.44
   5 -13   2   -1.02    1.86
   5  13   2    0.61    1.76
   5 -13   2    1.30    0.89
   5  13  -3    0.08    1.21
   5  13  -3    0.32    1.06
   4   1 -10   16.70    1.78
   4  -1 -10   19.92    1.78
   4  -1 -10   16.05    2.29
   4   1 -10   13.05    2.23
   4 -13  -8    1.93    1.58
   4  13  -8   -0.16    1.28
   4 -13  -8    1.19    1.81
   4  13  -8    0.60    1.21
  -1 -17  11    0.50    0.92
   4  21   1   10.63    1.59
   4 -21   1   13.22    1.27
   4 -21   1   10.77    1.83
  -2 -28   0   16.90    1.45
   2 -28   0   13.20    1.58
   2 -28   0   18.24    1.47
   3 -15   9    3.88    1.25
   3 -15   9    0.19    1.43
   3   5  11    0.66    1.30
   0  14 -12    3.25    0.97
   0  14 -12    4.25    1.65
   0 -14 -12    3.58    1.33
   0 -14  12    2.90    0.94
   4  -2 -10    1.76    2.00
   4  -2 -10    2.05    1.34
   4   2 -10    0.97    1.90
   4   2 -10   -0.52    1.46
  -1 -22   9   12.24    1.29
   5  12   3    4.91    1.48
   5 -12   3    5.51    1.01
   5 -12   3    5.49    1.28
  -1 -25  -7   -1.18    1.34
  -1 -25  -7    0.90    0.89
   4 -21  -2    1.16    1.18
   5  12  -4   -0.52    1.28
   5  12  -4    0.01    1.06
   2 -28  -1   32.43    2.30
   2 -28  -1   37.66    2.28
  -2 -28   1   38.16    2.24
  -1   6 -13    2.51    1.45
  -1  -6 -13   -0.05    0.85
  -1  -6 -13    0.42    1.22
  -1   6 -13   -0.18    0.85
   2   8  12   -1.29    1.37
  -2  -8 -12    0.90    0.93
  -2  -8 -12    0.12    1.27
   4   5   9    3.75    1.31
   4  -5   9    1.89    1.06
   2 -26  -5    2.57    1.37
   2 -26  -5    1.58    1.11
  -2 -26   5    2.22    1.00
  -2 -26   5    0.40    1.29
   2  26  -5    2.41    1.41
   4 -16   6    3.93    0.92
   4 -16   6   -0.02    1.68
   4  19   4   -0.61    1.32
   4  19   4   -0.31    1.03
   4 -19   4    0.97    0.92
   4 -19   4    0.60    1.67
   5   0   6    1.13    1.02
   5   0   6    2.54    1.19
   3 -19  -8   10.54    1.75
   3 -19  -8   11.80    1.49
   3  19  -8    9.90    1.67
   2 -25  -6    0.78    1.04
   2  25  -6    0.02    1.47
   2 -25  -6    1.93    1.12
   2 -25  -6    0.19    1.36
  -2 -25   6    0.62    1.36
   5   0  -7   12.61    2.30
   4  20   3   -1.04    1.42
   4 -20   3    1.35    1.73
   4 -20   3    0.39    0.93
   4  20   3    0.96    1.01
   5   1   6    8.95    1.21
   5  -1   6    7.48    1.28
   5  -1   6    8.07    1.20
   5   1   6    8.10    1.29
   3  25   2    5.37    1.55
   3 -25   2    8.28    1.11
   3 -25   2    6.50    1.25
   1   8 -13   29.90    2.37
   1   8 -13   27.92    2.09
   1  -8 -13   28.88    2.23
   5   1  -7   17.26    2.51
   5  -1  -7   26.52    2.60
   5  14   1   -1.48    2.31
   5  14   1    0.35    1.43
   5 -14   1   -0.24    1.71
   5  14  -2   -0.30    1.06
   4  -3 -10    9.32    1.86
   4  -3 -10    7.39    1.42
   4   3 -10    7.24    1.49
   4   3 -10    3.77    1.93
   2 -28   1    7.62    1.36
  -2 -28  -1   10.25    1.19
   0   9 -13    3.16    0.90
   0   9 -13    1.42    1.55
   0  -9 -13    2.17    1.33
   5   2   6    0.96    0.98
   5   2   6    1.34    1.14
   5  -2   6    2.41    1.17
   5  -2   6    1.80    1.10
   2 -15 -11    0.02    1.45
   3 -14 -10    6.98    1.67
   3 -14 -10    5.86    1.31
   0 -27   6    6.72    1.36
   0 -27   6    8.05    1.09
   0 -27  -6    7.41    1.53
   0 -27  -6    7.42    1.25
   5   2  -7    0.70    2.12
   5  -2  -7    4.94    2.10
   4 -10  -9    0.19    1.76
   4  10  -9    0.49    1.26
  -1 -20  10    1.37    0.91
   5  -8   5    0.52    1.05
   5  -8   5    0.26    0.90
   5  -8   5    0.83    1.12
   0 -28  -5   21.86    1.66
   0 -28   5   20.30    1.77
   5   8  -6    9.63    1.35
   5   8  -6    9.89    1.48
   2 -17  10   11.70    1.41
  -2 -17 -10   12.34    1.22
   2 -17  10   13.66    1.60
   4 -14   7    5.53    1.17
   4 -14   7    0.54    1.62
   3   6  11   18.84    1.60
  -3  -6 -11    9.88    1.58
   3 -10 -11    0.90    1.12
   3  10 -11    1.25    1.72
   3 -10 -11    1.02    1.63
  -1 -24   8   19.33    1.80
  -1 -24   8   22.30    1.57
   1  24  -8   17.92    1.96
   1 -24  -8   19.05    1.89
   3 -17  -9   11.19    1.44
   4 -20  -4    8.38    1.31
   4  20  -4    6.96    1.35
   2   0 -13    1.76    1.15
   4 -11   8    9.68    1.29
   4  19  -5   -1.74    1.35
   5   3   6    1.27    1.13
   5  -3   6   -0.23    1.05
   5  -3   6    0.19    1.13
  -1  13 -12    0.83    1.63
   1 -13  12    2.71    0.92
   1  13  12    5.11    1.37
  -1  13 -12    3.51    0.93
  -1 -13 -12    4.43    1.29
   3 -18   8   18.01    1.84
   3 -18   8   21.30    1.66
   3 -20   7    2.58    1.48
   4   4 -10    2.07    1.32
   4   4 -10    0.96    1.91
   4  -4 -10    2.65    1.77
   2   1 -13   22.41    1.75
   2  -1 -13   21.25    1.72
   5   3  -7    4.37    2.10
   3 -21  -7    2.75    1.23
   3  21  -7    4.37    1.47
   3 -21  -7    1.25    1.49
   2  11 -12    1.98    1.20
   2 -11 -12    1.08    1.55
   2  11 -12    2.28    1.57
   3 -12  10    5.92    1.15
   3  12  10    5.57    1.29
  -1 -29   3   18.69    1.53
   1 -29  -3   19.59    1.60
   4   6   9    0.27    1.18
   4 -18   5    4.94    0.92
   4 -18   5    5.28    1.73
   4  18   5    2.71    1.30
   2 -27  -4   12.65    1.40
   3 -25  -3    0.39    1.01
   2 -28  -2    0.60    1.06
  -2 -28   2    0.91    0.92
  -1  -7 -13    0.88    0.82
  -1   7 -13    1.50    1.46
  -1   7 -13   -0.13    0.82
   2 -24  -7    5.34    1.43
  -2 -24   7    5.38    1.48
   2  24  -7    6.10    1.59
   2   2 -13   10.22    1.40
   2  -2 -13   12.93    1.40
   0  18 -11    0.97    0.94
   0 -18  11    0.62    0.89
   4  16  -7    0.67    1.25
   4 -16  -7    0.91    1.52
   1 -14 -12    6.70    1.46
   4  21   2    0.67    0.98
   4  21   2    0.63    1.37
   4 -21   2    1.88    0.94
   5  11  -5    3.08    1.38
   5  11  -5    6.90    1.23
   0  26  -7    5.77    1.59
   0 -26  -7    4.26    1.11
   0 -26  -7    3.39    1.40
   3  23   5    1.38    1.30
   1 -29   3   12.01    1.41
   1  29   3    9.42    1.93
   5  -4   6    7.71    1.23
   5  -4   6    5.32    1.13
  -2  -9 -12   48.17    3.74
  -2  -9 -12   64.37    3.62
   3  24   4    0.27    1.38
   3   0 -12    1.11    1.22
   2  14  11   16.69    1.49
  -2 -14 -11   16.07    1.23
   3  -1 -12   19.75    1.70
   3  -1 -12   22.98    1.75
   2  -3 -13    3.90    1.13
   2   3 -13    3.91    1.24
   4   5 -10    0.19    1.31
   4   5 -10   -1.28    1.81
   1   9 -13   16.64    1.87
   1  -9 -13   16.80    1.71
   4 -21  -3    1.56    1.15
   2  26   5    3.09    1.40
  -2 -26  -5    2.71    0.89
  -2 -28  -2    3.86    0.98
   2 -28   2    3.39    1.19
   0 -29   4   56.88    3.25
   3   7  11   -1.06    1.18
   3  -2 -12    4.08    1.26
   5 -15   0    3.06    1.91
   5  14   2    5.52    1.44
   4  18  -6    0.71    1.32
   0 -10 -13    9.65    1.41
   0  10 -13    8.46    1.63
  -2 -22  -8    5.38    0.97
  -2 -20  -9   15.36    1.26
   5  13   3    0.93    1.29
   2   4 -13   10.43    1.34
   0  15  12   32.25    2.23
   2  27   4    6.64    1.60
   1  27  -6    4.83    1.48
   3  25   3    0.59    1.33
   0   0   0    0.00    0.00

_computing_structure_solution     'SHELXT 2018/2 (Sheldrick, 2018)'
;

_shelx_hkl_checksum   78608

#==============================================================================
#     End of CIF
#==============================================================================
