data_publication_text

#==============================================================================
# 0. Title
#
# In the title the systematic name (IUPAC nomenclature) of the compound studied
# should be provided. 
#
# Solvate molecules should also be mentioned and quantified.
#==============================================================================
_publ_section_title
;  
Crystal structure of
<i>catena</i>-poly[diaqua-bis(\m~2~-4,4'-bipyridyl-\k^2^<i>N</i>:<i>N</i>')
disilver(I)] 4-oxidopyridine-3-sulfonate trihydrate,
C~25~H~29~Ag~2~N~5~O~9~S
;

#==============================================================================
# 1. Cover Letter and Correspondence Author 
#==============================================================================
_publ_contact_author_name     'Xue, Li'
_publ_contact_author_address
;   'Xue, Li'
     College of Biology and Pharmaceutical Engineering
     Jilin Agricultural Science and Technology University
     Jilin 132101
     P. R. China
;

_publ_contact_author_email     'lixue_jlnku@163.com' 
_publ_contact_author_fax       ' '
_publ_contact_author_phone     '086 13578518595'

_publ_requested_journal        'Z. Kristallogr. NCS'

_publ_contact_letter
;
Dear Editorial Team,

please consider this CIF submission for publication in Zeitschrift f\"ur
Kristallografie - New Crystal Structures.

I certify that this contibution is the original work of those listed as authors;
that it has not been published before (in any language or medium) and is not
being considered for publication elsewhere; that all authors concur with and are
aware of the submission; that all workers involved in the study are listed as
authors or given proper credit in the acknowledgements; that I have obtained
permission for and acknowledged the source of any excerpts from other copyright
works; and that to the best of my knowledge the paper contains no statements
which are libellous, unlawful or in any way actionable. All coauthors have made
significant scientific contributions to the work reported, including the ideas
and their execution, and share responsibility and accountability for the
results.
 
Best regards

Xue, Li

; 

#==========================================================================
# 2. AUTHOR LIST
#==========================================================================
loop_
_publ_author_name
_publ_author_address
_publ_author_footnote
_publ_author_email
'Zhao, Han-Lin'
;
College of biology and pharmaceutical engineering, Jilin Agricultural Science
and Technology University, Jilin 132101, Province Jilin, P.R. China
;
.
.
'Jiang, Jin-Ke'
;
State Key Laboratory of Crystal Materials, Shandong University, Jinan 250100
Shandong, P.R. China
;
.
.
'Jiang, Hui'
;
College of biology and pharmaceutical engineering, Jilin Agricultural Science
and Technology University, Jilin 132101, Province Jilin, P.R. China
;
.
.
'Dong, Xian-Wu'
;
College of biology and pharmaceutical engineering, Jilin Agricultural Science
and Technology University, Jilin 132101, Province Jilin, P.R. China
;
.
.
'Li, Xue'
;
College of biology and pharmaceutical engineering, Jilin Agricultural Science
and Technology University, Jilin 132101, Province Jilin, P.R. China
;
.
;
lixue_jlnku@163.com
;



#==============================================================================
# 3. TEXT
#==============================================================================
_publ_body_contents
;
The molecular structure is shown in the figure. Table 1 contains 
crystallographic data and Table 2 contains the list of the atoms including 
atomic coordinates and displacement parameters.
;

#==============================================================================
# 3.1. Abstract
#==============================================================================
_publ_section_abstract
;
<b>Abstract</b>

C~25~H~29~Ag~2~N~5~O~9~S, monoclinic, <i>P</i>2~1~/<i>m</i> (no. 11), 
<i>a</i> = 8.5437(16) \%A, <i>b</i> = 17.852(4) \%A, 
<i>c</i> = 9.3335(13) \%A, <i>\b</i> = 101.380(16)\%, 
<i>V</i> = 1395.6(5) \%A^3^, <i>Z</i> = 2,
<i>R</i>~gt~(<i>F</i>) = 0.0271, <i>wR</i>~ref~(<i>F</i>^2^) = 0.0653,
<i>T</i> = 293(2) K. 
<b>CCDC no.:</b> 2039782
;


#==============================================================================
# 3.2. Source of material
#
# For starting materials which are not commercially available a literature
# reference should point to a robust synthetic protocol. A short description
# focusing only on the synthesis of the title compound and the procedure used 
# to grow the investigated crystal(s) should be given.
#==============================================================================
_publ_section_exptl_prep
;
<b>Source of material:</b>

A mixture of Ag~2~CO~3~ (0.138 g, 0.5 mmol) and 4-hydroxypyridine-3-sulfonic
acid (0.088 g, 0.5 mmol) in 15 mL EtOH/H~2~O (2:1, <i>v/v</i>) 
was reacted for 15
minutes. Tan aqueous solution of ammonia was added to make 
the solution clear. A
methyl alcohol solution of 4,4'-bipyridine (0.078 g, 0.5 mmol) was added
the system at the same time. The solution was kept in a dark room and
the crystals were obtained.
;


#==============================================================================
# 3.3. Experimental details
#
# Items that should be mentioned in this section, if these are present:
#   -  The treatment of hydrogen atoms
#   -  The appearance of any disorder
#   -  The determination of absolute structure 
#   -  The appearance of twinning including the ratio of the components and 
#      the twin law
#   -  Unusually high or low difference electron densities
#   -  Low completeness of the data set
#   -  Treatment of solvent molecules (Platon/SQUEEZE or rigid refinement)
#==============================================================================

_publ_section_experimental
;

<b>Experimental details</b>

The detailed information of single crystal were collected by CrysAlis^PRO^
1.171.39.7e [1], were solved by SHELXT [2] program with WinGX [3], refined by
SHELXL [4].
;


#==============================================================================
# 3.4. Discussion
#
# This section (which should be provided with the heading Comment or 
# Discussion) should begin with a SHORT introduction not exceeding the rest of
# this section. 
# 
# The structural description usually begins with the content of the asymmetric 
# unit. 
# 
# Structural parameters of molecules, molecular fragments, ions, coordination 
# modes, etc. may be discussed and related to known examples
# from the literature. 
#
# General crystallographic problems and findings may also be discussed here, 
# whereas the related details should be part of the Experimental details 
# section. 
#
# Intermolecular/interionic connections should be mentioned at the end of this 
# section. There should be a good reason to discuss weak interactions of any 
# kind if the distances found in the structure are in the expected ranges or 
# even above corresponding van-der-Waals values. 
#==============================================================================

_publ_section_comment
;
<b>Comment</b>

As is depicted in the Figure, the Ag cation 
is three-coordinated by two nitrogen
atoms coming from two 4,4'-bipyridine ligands and one oxygen atom of a
water molecule. The bond lengths and angles are similar to 
those observed in other coordination
polymers [5-8]. The 4-hydroxypyridine-3-sulfonic acid is the 
counter ion in this
structure. The distance of Ag...Ag is 3.260 \%A. Lastly, the title 
compound forms a
three-dimensional structure due to the existence of free water molecules.
It should be mentioned that the structure of the ylidic educt has ben 
reported [9].

;

#==============================================================================
# 4. References
# If a recent article summarises the corresponding stock of knowledge, we
# strongly suggest that this article is cited. A statement at the end of the
# reference may point to this compilation, instead of a duplication of the
# already published reference list.
# 
#==============================================================================

_publ_section_references
;
<b>References</b>

1. Rigaku Corporation: CrysAlis^PRO^. Yarnton, Oxfordshire, England (2015).

2. Sheldrick G. M. <i>SHELXTL</i> -- Integrated space-group and
crystal-structure determination. 
<i>Acta Crystallogr.</i> 2015, <i>A71</i>, 3--8.

3. Farrugia L. J. WinGX and ORTEP for Windows: an update. <i>J. Appl.
Cryst.</i> 2012, <i>45</i>, 849--854.

4. Sheldrick, G. M.: Crystal structure refnement with SHELXL. <i>Acta
Crystallogr</i> 2015, <i>C71</i>, 3--8.

5. Amiri S., Ghassemzadeh M., Neum\"uller B., Mohsenzadeh F. A new
silver(I) coordination polymer containing bitopic 1,2,4-triazole derivative:
synthesis, structural investigation, and thermal behavior. <i>Polyhedron</i> 
2021, <i>197</i>, 115039.

6. Zhu Y.-H., Li X., Li Y.-G., Wang Q., Lu X.-J. Synthesis, structures and
urease inhibitory activities of three silver(I) complexes derived from 2,
6-dichlorophenyl acetic acid. <i>Inorg. Chim. Acta</i> 2019, <i>484</i>,
42--46.

7. Qu Y., Zhao K., Wang C., Wu Y.-C., Xia L.-X., Wu H.-L. Synthesis, crystal
structure, fluorescent and electrochemical properties of three silver(I)
complexes with 2,2'-(1,4-butanediyl)bis-1,3-benzimidazole bridging ligand.
<i>J. Mol. Struct.</i> 2020, <i>1203</i>, 127424.

8. Ruan Z.-W., Zhang X., Pang A.-Y., Dai F.-R., Chen Z.-N. Blue luminescent
silver(I) complexes constructed by 2-diphenylphosphinopyridine and dicyanamide
or tricyanomethanide. <i>Inorg. Chem. Commun</i>. 2020, <i>116</i>, 107916.

9. Zhu Z.-B., Gao S., Ng S. W. 4-Hydroxypyridinium-3-sulfonate. 
<i>Acta Crystallogr.</i> 2011, <i>E67</i>, o11.
;

#==============================================================================
# 5. Acknowledgements
#==============================================================================

_publ_section_acknowledgements 
;

<b>Author contribution:</b>

All the authors have accepted responsibility for the entire content of this 
submitted manuscript and approved submission.

<b>Research funding:</b> This work was supported by Key Construction
Disciplines of Biology, Jilin Agricultural Science and Technology University.

<b>Conflict of interest statement:</b> The authors declare no conflicts of 
interest regarding this article.
;

#==============================================================================
# 6. Figure
#
# One black and white figure will be printed. Bonds, labels and border lines 
# of the atoms should be drawn in plain black. At least the asymmetric unit of 
# the title structure should be labelled and shown using displacement 
# ellipsoids drawn at an appropriate probability level. 
# To support the understanding of the structural properties individual styles 
# for the element types are welcome/desirable. 
# As there is no caption to the figure, the part of the crystal structure shown 
# in the figure must be mentioned somewhere in the Comment/Discussion Section. 
# If there is a scientific need for a second figure it is requested that these 
# two figures should be aggregated in one disparate picture. In this case both 
# parts have to be discussed in the text.
#
#==============================================================================


#==============================================================================
# 7. Data
#==============================================================================
data_shelx
 
_audit_creation_method            'SHELXL-2017/1'
_shelx_SHELXL_version_number      '2017/1'
_chemical_name_systematic         ?
_chemical_name_common             ?
_chemical_melting_point           ?
_chemical_formula_moiety         '2(C10 H10 Ag N2 O), C5 H3 N O4 S, 3(H2 O)'
_chemical_formula_sum
'C25 H29 Ag2 N5 O9 S'
_chemical_formula_weight          791.33

loop_
 _atom_type_symbol
 _atom_type_description
 _atom_type_scat_dispersion_real
 _atom_type_scat_dispersion_imag
 _atom_type_scat_source
 'C'  'C'   0.0033   0.0016
 'International Tables Vol C Tables 4.2.6.8 and 6.1.1.4'
 'H'  'H'   0.0000   0.0000
 'International Tables Vol C Tables 4.2.6.8 and 6.1.1.4'
 'Ag'  'Ag'  -0.8971   1.1015
 'International Tables Vol C Tables 4.2.6.8 and 6.1.1.4'
 'N'  'N'   0.0061   0.0033
 'International Tables Vol C Tables 4.2.6.8 and 6.1.1.4'
 'O'  'O'   0.0106   0.0060
 'International Tables Vol C Tables 4.2.6.8 and 6.1.1.4'
 'S'  'S'   0.1246   0.1234
 'International Tables Vol C Tables 4.2.6.8 and 6.1.1.4'
 
_space_group_crystal_system       monoclinic
_space_group_IT_number            11
_space_group_name_H-M_alt         'P 21/m'
_space_group_name_Hall            '-P 2yb'
 
_shelx_space_group_comment
;
The symmetry employed for this shelxl refinement is uniquely defined
by the following loop, which should always be used as a source of
symmetry information in preference to the above space-group names.
They are only intended as comments.
;
 
loop_
 _space_group_symop_operation_xyz
 'x, y, z'
 '-x, y+1/2, -z'
 '-x, -y, -z'
 'x, -y-1/2, z'
 
_cell_length_a                    8.5437(16)
_cell_length_b                    17.852(4)
_cell_length_c                    9.3335(13)
_cell_angle_alpha                 90
_cell_angle_beta                  101.380(16)
_cell_angle_gamma                 90
_cell_volume                      1395.6(5)
_cell_formula_units_Z             2
_cell_measurement_temperature     293(2)
_cell_measurement_reflns_used     3846
_cell_measurement_theta_min       5.3560
_cell_measurement_theta_max       29.3430
 
_exptl_crystal_description        block
_exptl_crystal_colour             colorless
_exptl_crystal_density_meas       ?
_exptl_crystal_density_method     ?
_exptl_crystal_density_diffrn     1.883          
_exptl_crystal_F_000              792
_exptl_transmission_factor_min    ?
_exptl_transmission_factor_max    ?
_exptl_crystal_size_max           0.140
_exptl_crystal_size_mid           0.110
_exptl_crystal_size_min           0.070
_exptl_absorpt_coefficient_mu     1.540
_shelx_estimated_absorpt_T_min    0.813
_shelx_estimated_absorpt_T_max    0.900
_exptl_absorpt_correction_type    multi-scan
_exptl_absorpt_correction_T_min   0.76957
_exptl_absorpt_correction_T_max   1.00000
_exptl_absorpt_process_details    
;
CrysAlisPro 1.171.39.7e (Rigaku Oxford Diffraction, 2015)
Empirical absorption correction using spherical harmonics,
 implemented in SCALE3 ABSPACK scaling algorithm.
;
_exptl_absorpt_special_details    ?
_diffrn_ambient_temperature       293(2)
_diffrn_radiation_wavelength      0.71073
_diffrn_radiation_type            MoK\a
_diffrn_source                    'fine-focus sealed X-ray tube'
_diffrn_measurement_device_type   'XtaLAB Pro: Kappa dual offset/far'
_diffrn_measurement_method        '\w scans'
_diffrn_detector_area_resol_mean  ?
_diffrn_reflns_number             8980
_diffrn_reflns_av_unetI/netI      0.0201
_diffrn_reflns_av_R_equivalents   0.0223
_diffrn_reflns_limit_h_min        -10
_diffrn_reflns_limit_h_max        8
_diffrn_reflns_limit_k_min        -20
_diffrn_reflns_limit_k_max        21
_diffrn_reflns_limit_l_min        -11
_diffrn_reflns_limit_l_max        11
_diffrn_reflns_theta_min          5.083
_diffrn_reflns_theta_max          25.027
_diffrn_reflns_theta_full         25.000
_diffrn_measured_fraction_theta_max   0.988
_diffrn_measured_fraction_theta_full  0.988
_diffrn_reflns_Laue_measured_fraction_max    0.988
_diffrn_reflns_Laue_measured_fraction_full   0.988
_diffrn_reflns_point_group_measured_fraction_max   0.988
_diffrn_reflns_point_group_measured_fraction_full  0.988
_reflns_number_total              2524
_reflns_number_gt                 2260
_reflns_threshold_expression      'I > 2\s(I)'
_reflns_Friedel_coverage          0.000
_reflns_Friedel_fraction_max      .
_reflns_Friedel_fraction_full     .
 
_reflns_special_details
;
 Reflections were merged by SHELXL according to the crystal
 class for the calculation of statistics and refinement.
 
 _reflns_Friedel_fraction is defined as the number of unique
 Friedel pairs measured divided by the number that would be
 possible theoretically, ignoring centric projections and
 systematic absences.
;
 
_computing_data_collection         'CrysAlisPro 1.171.39.7e (Rigaku OD, 2015)'
_computing_cell_refinement         'CrysAlisPro 1.171.39.7e (Rigaku OD, 2015)'
_computing_data_reduction          'CrysAlisPro 1.171.39.7e (Rigaku OD, 2015)'
_computing_structure_solution     'SHELXT 2014/5 (Sheldrick, 2014)'
_computing_structure_refinement 'SHELXL-2017/1 (Sheldrick, 2017)'
_computing_molecular_graphics     ?
_computing_publication_material   ?
_refine_special_details           ?
_refine_ls_structure_factor_coef  Fsqd
_refine_ls_matrix_type            full
_refine_ls_weighting_scheme       calc
_refine_ls_weighting_details
'w=1/[\s^2^(Fo^2^)+(0.0262P)^2^+1.1923P] where P=(Fo^2^+2Fc^2^)/3'
_atom_sites_solution_primary      ?
_atom_sites_solution_secondary    ?
_atom_sites_solution_hydrogens    mixed
_refine_ls_hydrogen_treatment     mixed
_refine_ls_extinction_method      none
_refine_ls_extinction_coef        .
_refine_ls_number_reflns          2524
_refine_ls_number_parameters      235
_refine_ls_number_restraints      5
_refine_ls_R_factor_all           0.0318
_refine_ls_R_factor_gt            0.0271
_refine_ls_wR_factor_ref          0.0653
_refine_ls_wR_factor_gt           0.0631
_refine_ls_goodness_of_fit_ref    1.127
_refine_ls_restrained_S_all       1.126
_refine_ls_shift/su_max           0.000
_refine_ls_shift/su_mean          0.000
 
loop_
 _atom_site_label
 _atom_site_type_symbol
 _atom_site_fract_x
 _atom_site_fract_y
 _atom_site_fract_z
 _atom_site_U_iso_or_equiv
 _atom_site_adp_type
 _atom_site_occupancy
 _atom_site_site_symmetry_order  
 _atom_site_calc_flag
 _atom_site_refinement_flags_posn
 _atom_site_refinement_flags_adp
 _atom_site_refinement_flags_occupancy
 _atom_site_disorder_assembly
 _atom_site_disorder_group
C1 C -0.1153(4) 0.44867(18) -0.3552(3) 0.0504(8) Uani 1 1 d . . . . .
H1 H -0.165162 0.403996 -0.389298 0.061 Uiso 1 1 calc R U . . .
C2 C 0.0077(4) 0.44610(16) -0.2370(3) 0.0488(8) Uani 1 1 d . . . . .
H2 H 0.039168 0.400314 -0.193059 0.059 Uiso 1 1 calc R U . . .
C3 C 0.0859(3) 0.51092(14) -0.1819(3) 0.0292(5) Uani 1 1 d . . . . .
C4 C 0.0347(4) 0.57633(16) -0.2565(3) 0.0441(7) Uani 1 1 d . . . . .
H4 H 0.084441 0.621541 -0.226066 0.053 Uiso 1 1 calc R U . . .
C5 C -0.0892(4) 0.57467(17) -0.3751(3) 0.0461(8) Uani 1 1 d . . . . .
H5 H -0.120368 0.619329 -0.423771 0.055 Uiso 1 1 calc R U . . .
C6 C 0.3762(4) 0.44860(17) 0.1533(3) 0.0501(8) Uani 1 1 d . . . . .
H6 H 0.405918 0.404021 0.202779 0.060 Uiso 1 1 calc R U . . .
C7 C 0.2608(4) 0.44609(16) 0.0284(3) 0.0494(8) Uani 1 1 d . . . . .
H7 H 0.214718 0.400504 -0.004748 0.059 Uiso 1 1 calc R U . . .
C8 C 0.2127(3) 0.51087(14) -0.0483(3) 0.0280(5) Uani 1 1 d . . . . .
C9 C 0.2878(4) 0.57545(17) 0.0082(4) 0.0560(10) Uani 1 1 d . . . . .
H9 H 0.260878 0.620843 -0.039117 0.067 Uiso 1 1 calc R U . . .
C10 C 0.4025(4) 0.57356(18) 0.1342(4) 0.0541(9) Uani 1 1 d . . . . .
H10 H 0.450735 0.618338 0.169692 0.065 Uiso 1 1 calc R U . . .
C11 C 0.1113(5) 0.250000 0.8923(5) 0.0345(9) Uani 1 2 d S T P . .
C12 C 0.2578(4) 0.250000 0.8503(4) 0.0270(7) Uani 1 2 d S T P . .
C13 C 0.4015(4) 0.250000 0.9585(4) 0.0271(8) Uani 1 2 d S T P . .
C14 C 0.3766(5) 0.250000 1.1047(4) 0.0344(8) Uani 1 2 d S T P . .
H14 H 0.464115 0.250000 1.181843 0.041 Uiso 1 2 calc R U P . .
C15 C 0.2273(5) 0.250000 1.1331(5) 0.0417(10) Uani 1 2 d S T P . .
H15 H 0.217585 0.250000 1.230628 0.050 Uiso 1 2 calc R U P . .
Ag1 Ag 0.63265(3) 0.51108(2) 0.39791(2) 0.04697(11) Uani 1 1 d . . . . .
N1 N -0.1674(3) 0.51182(13) -0.4241(2) 0.0351(5) Uani 1 1 d . . . . .
N2 N 0.4476(3) 0.51144(13) 0.2073(2) 0.0335(5) Uani 1 1 d . . . . .
N3 N 0.0925(4) 0.250000 1.0315(4) 0.0417(8) Uani 1 2 d S T P . .
O1 O 0.3464(3) 0.31775(12) 0.6346(2) 0.0482(5) Uani 1 1 d . . . . .
O2 O 0.0984(4) 0.250000 0.5851(3) 0.0571(9) Uani 1 2 d S T P . .
O1W O -0.2622(6) 0.2663(7) 0.7345(6) 0.069(4) Uani 0.5 1 d D . P . .
O2W O 0.5527(3) 0.35965(13) 0.4459(3) 0.0574(6) Uani 1 1 d G . . . .
H2WA H 0.496332 0.338942 0.500089 0.086 Uiso 1 1 d G U . . .
H2WB H 0.626564 0.328587 0.441817 0.086 Uiso 1 1 d G U . . .
O3W O 0.8106(4) 0.250000 1.1360(3) 0.0371(6) Uani 1 2 d DS T P . .
O4W O 0.7897(4) 0.250000 1.4180(4) 0.0561(9) Uani 1 2 d DS T P . .
O6 O 0.5412(3) 0.250000 0.9290(3) 0.0368(6) Uani 1 2 d S T P . .
S1 S 0.26302(11) 0.250000 0.66201(10) 0.0319(2) Uani 1 2 d S T P . .
H1WA H -0.338(9) 0.250000 0.762(8) 0.09(3) Uiso 1 2 d S . P . .
H1WB H -0.286(13) 0.250000 0.648(3) 0.18(5) Uiso 1 2 d DS . P . .
H3WA H 0.727(3) 0.250000 1.071(3) 0.030(11) Uiso 1 2 d DS . P . .
H3WB H 0.894(5) 0.250000 1.103(6) 0.09(2) Uiso 1 2 d DS . P . .
H4WA H 0.875(5) 0.250000 1.480(6) 0.10(2) Uiso 1 2 d DS . P . .
H4WB H 0.805(6) 0.250000 1.331(3) 0.062(16) Uiso 1 2 d DS . P . .
H11 H 0.017(5) 0.250000 0.824(5) 0.036(11) Uiso 1 2 d S . P . .
 
loop_
 _atom_site_aniso_label
 _atom_site_aniso_U_11
 _atom_site_aniso_U_22
 _atom_site_aniso_U_33
 _atom_site_aniso_U_23
 _atom_site_aniso_U_13
 _atom_site_aniso_U_12
C1 0.055(2) 0.0360(17) 0.0482(18) 0.0012(13) -0.0196(15) -0.0108(14)
C2 0.057(2) 0.0271(15) 0.0487(17) 0.0059(13) -0.0240(15) -0.0044(13)
C3 0.0293(13) 0.0283(13) 0.0274(13) 0.0012(10) -0.0011(11) 0.0006(10)
C4 0.0555(19) 0.0273(14) 0.0388(15) -0.0001(12) -0.0168(13) 0.0003(13)
C5 0.0528(19) 0.0349(16) 0.0402(16) 0.0025(13) -0.0158(14) 0.0066(14)
C6 0.066(2) 0.0287(16) 0.0420(16) 0.0016(12) -0.0236(15) 0.0077(14)
C7 0.064(2) 0.0255(15) 0.0433(17) -0.0040(12) -0.0263(15) 0.0039(13)
C8 0.0280(13) 0.0277(13) 0.0252(12) 0.0021(10) -0.0024(10) 0.0019(10)
C9 0.067(2) 0.0300(15) 0.0530(19) 0.0124(14) -0.0318(16) -0.0108(15)
C10 0.063(2) 0.0340(16) 0.0505(18) 0.0060(14) -0.0261(16) -0.0154(15)
C11 0.027(2) 0.0293(19) 0.043(2) 0.000 -0.0029(17) 0.000
C12 0.0279(19) 0.0189(16) 0.0311(18) 0.000 -0.0012(15) 0.000
C13 0.029(2) 0.0179(16) 0.0305(18) 0.000 -0.0038(15) 0.000
C14 0.040(2) 0.0289(19) 0.0297(19) 0.000 -0.0053(16) 0.000
C15 0.049(3) 0.040(2) 0.036(2) 0.000 0.0067(19) 0.000
Ag1 0.03662(15) 0.06446(18) 0.03086(14) -0.00417(10) -0.01522(9) 0.00535(11)
N1 0.0319(12) 0.0403(13) 0.0282(11) -0.0013(10) -0.0062(9) 0.0026(10)
N2 0.0313(12) 0.0360(12) 0.0279(11) 0.0003(9) -0.0074(9) 0.0004(9)
N3 0.036(2) 0.045(2) 0.045(2) 0.000 0.0098(16) 0.000
O1 0.0591(14) 0.0462(13) 0.0373(11) 0.0083(9) 0.0045(10) -0.0105(10)
O2 0.0347(17) 0.087(2) 0.0404(17) 0.000 -0.0146(13) 0.000
O1W 0.045(3) 0.107(13) 0.054(3) 0.002(3) 0.010(2) -0.002(3)
O2W 0.0678(17) 0.0457(13) 0.0574(14) 0.0093(11) 0.0093(13) 0.0002(12)
O3W 0.0282(15) 0.0486(17) 0.0309(14) 0.000 -0.0031(12) 0.000
O4W 0.0384(19) 0.095(3) 0.0347(18) 0.000 0.0065(15) 0.000
O6 0.0257(14) 0.0459(16) 0.0349(14) 0.000 -0.0030(11) 0.000
S1 0.0299(5) 0.0342(5) 0.0270(4) 0.000 -0.0057(4) 0.000
 
_geom_special_details
;
 All esds (except the esd in the dihedral angle between two l.s. planes)
 are estimated using the full covariance matrix.  The cell esds are taken
 into account individually in the estimation of esds in distances, angles
 and torsion angles; correlations between esds in cell parameters are only
 used when they are defined by crystal symmetry.  An approximate (isotropic)
 treatment of cell esds is used for estimating esds involving l.s. planes.
;
 
loop_
 _geom_bond_atom_site_label_1
 _geom_bond_atom_site_label_2
 _geom_bond_distance
 _geom_bond_site_symmetry_2
 _geom_bond_publ_flag
C1 N1 1.330(4) . ?
C1 C2 1.367(4) . ?
C1 H1 0.9300 . ?
C2 C3 1.384(4) . ?
C2 H2 0.9300 . ?
C3 C4 1.386(4) . ?
C3 C8 1.481(4) . ?
C4 C5 1.373(4) . ?
C4 H4 0.9300 . ?
C5 N1 1.339(4) . ?
C5 H5 0.9300 . ?
C6 N2 1.328(4) . ?
C6 C7 1.371(4) . ?
C6 H6 0.9300 . ?
C7 C8 1.379(4) . ?
C7 H7 0.9300 . ?
C8 C9 1.373(4) . ?
C9 C10 1.374(4) . ?
C9 H9 0.9300 . ?
C10 N2 1.319(4) . ?
C10 H10 0.9300 . ?
C11 N3 1.341(5) . ?
C11 C12 1.383(5) . ?
C11 H11 0.93(4) . ?
C12 C13 1.428(5) . ?
C12 S1 1.767(4) . ?
C13 O6 1.276(4) . ?
C13 C14 1.422(5) . ?
C14 C15 1.353(6) . ?
C14 H14 0.9300 . ?
C15 N3 1.340(6) . ?
C15 H15 0.9300 . ?
Ag1 N2 2.135(2) . ?
Ag1 N1 2.135(2) 1_656 ?
Ag1 Ag1 3.2606(7) 3_666 ?
O1 S1 1.452(2) . ?
O2 S1 1.447(3) . ?
O1W O1W 0.58(3) 4_565 ?
O1W H1WA 0.80(7) . ?
O1W H1WB 0.85(2) . ?
O2W H2WA 0.8486 . ?
O2W H2WB 0.8468 . ?
O3W H3WA 0.836(19) . ?
O3W H3WB 0.83(2) . ?
O4W H4WA 0.84(2) . ?
O4W H4WB 0.85(2) . ?
 
loop_
 _geom_angle_atom_site_label_1
 _geom_angle_atom_site_label_2
 _geom_angle_atom_site_label_3
 _geom_angle
 _geom_angle_site_symmetry_1
 _geom_angle_site_symmetry_3
 _geom_angle_publ_flag
N1 C1 C2 123.3(3) . . ?
N1 C1 H1 118.3 . . ?
C2 C1 H1 118.3 . . ?
C1 C2 C3 120.7(3) . . ?
C1 C2 H2 119.7 . . ?
C3 C2 H2 119.7 . . ?
C2 C3 C4 115.9(3) . . ?
C2 C3 C8 122.1(2) . . ?
C4 C3 C8 122.0(2) . . ?
C5 C4 C3 120.3(3) . . ?
C5 C4 H4 119.9 . . ?
C3 C4 H4 119.9 . . ?
N1 C5 C4 123.1(3) . . ?
N1 C5 H5 118.4 . . ?
C4 C5 H5 118.4 . . ?
N2 C6 C7 123.3(3) . . ?
N2 C6 H6 118.3 . . ?
C7 C6 H6 118.3 . . ?
C6 C7 C8 120.3(3) . . ?
C6 C7 H7 119.8 . . ?
C8 C7 H7 119.8 . . ?
C9 C8 C7 115.8(2) . . ?
C9 C8 C3 122.1(2) . . ?
C7 C8 C3 122.1(2) . . ?
C8 C9 C10 120.6(3) . . ?
C8 C9 H9 119.7 . . ?
C10 C9 H9 119.7 . . ?
N2 C10 C9 123.3(3) . . ?
N2 C10 H10 118.3 . . ?
C9 C10 H10 118.3 . . ?
N3 C11 C12 124.3(4) . . ?
N3 C11 H11 115(3) . . ?
C12 C11 H11 121(3) . . ?
C11 C12 C13 120.0(3) . . ?
C11 C12 S1 118.9(3) . . ?
C13 C12 S1 121.1(3) . . ?
O6 C13 C14 122.0(3) . . ?
O6 C13 C12 123.9(3) . . ?
C14 C13 C12 114.0(3) . . ?
C15 C14 C13 120.9(4) . . ?
C15 C14 H14 119.5 . . ?
C13 C14 H14 119.5 . . ?
N3 C15 C14 125.0(4) . . ?
N3 C15 H15 117.5 . . ?
C14 C15 H15 117.5 . . ?
N2 Ag1 N1 174.87(9) . 1_656 ?
N2 Ag1 Ag1 90.09(7) . 3_666 ?
N1 Ag1 Ag1 95.04(7) 1_656 3_666 ?
C1 N1 C5 116.6(3) . . ?
C1 N1 Ag1 120.7(2) . 1_454 ?
C5 N1 Ag1 122.64(19) . 1_454 ?
C10 N2 C6 116.7(2) . . ?
C10 N2 Ag1 121.76(19) . . ?
C6 N2 Ag1 121.54(19) . . ?
C15 N3 C11 115.8(4) . . ?
O1W O1W H1WA 69(2) 4_565 . ?
O1W O1W H1WB 69.9(11) 4_565 . ?
H1WA O1W H1WB 98(8) . . ?
H2WA O2W H2WB 104.9 . . ?
H3WA O3W H3WB 114(5) . . ?
H4WA O4W H4WB 112(6) . . ?
O2 S1 O1 112.02(11) . 4_565 ?
O2 S1 O1 112.02(11) . . ?
O1 S1 O1 112.8(2) 4_565 . ?
O2 S1 C12 106.30(19) . . ?
O1 S1 C12 106.56(11) 4_565 . ?
O1 S1 C12 106.56(11) . . ?
 
loop_
 _geom_torsion_atom_site_label_1
 _geom_torsion_atom_site_label_2
 _geom_torsion_atom_site_label_3
 _geom_torsion_atom_site_label_4
 _geom_torsion
 _geom_torsion_site_symmetry_1
 _geom_torsion_site_symmetry_2
 _geom_torsion_site_symmetry_3
 _geom_torsion_site_symmetry_4
 _geom_torsion_publ_flag
N1 C1 C2 C3 0.0(6) . . . . ?
C1 C2 C3 C4 -1.9(5) . . . . ?
C1 C2 C3 C8 176.0(3) . . . . ?
C2 C3 C4 C5 1.6(5) . . . . ?
C8 C3 C4 C5 -176.4(3) . . . . ?
C3 C4 C5 N1 0.7(5) . . . . ?
N2 C6 C7 C8 -0.1(6) . . . . ?
C6 C7 C8 C9 0.4(5) . . . . ?
C6 C7 C8 C3 -178.6(3) . . . . ?
C2 C3 C8 C9 -178.5(3) . . . . ?
C4 C3 C8 C9 -0.7(5) . . . . ?
C2 C3 C8 C7 0.4(5) . . . . ?
C4 C3 C8 C7 178.2(3) . . . . ?
C7 C8 C9 C10 -0.4(5) . . . . ?
C3 C8 C9 C10 178.6(3) . . . . ?
C8 C9 C10 N2 0.2(6) . . . . ?
N3 C11 C12 C13 0.000(2) . . . . ?
N3 C11 C12 S1 180.000(1) . . . . ?
C11 C12 C13 O6 180.000(1) . . . . ?
S1 C12 C13 O6 0.000(2) . . . . ?
C11 C12 C13 C14 0.000(2) . . . . ?
S1 C12 C13 C14 180.000(1) . . . . ?
O6 C13 C14 C15 180.000(2) . . . . ?
C12 C13 C14 C15 0.000(2) . . . . ?
C13 C14 C15 N3 0.000(3) . . . . ?
C2 C1 N1 C5 2.2(5) . . . . ?
C2 C1 N1 Ag1 -177.2(3) . . . 1_454 ?
C4 C5 N1 C1 -2.6(5) . . . . ?
C4 C5 N1 Ag1 176.8(3) . . . 1_454 ?
C9 C10 N2 C6 0.0(6) . . . . ?
C9 C10 N2 Ag1 177.6(3) . . . . ?
C7 C6 N2 C10 -0.1(5) . . . . ?
C7 C6 N2 Ag1 -177.7(3) . . . . ?
C14 C15 N3 C11 0.000(2) . . . . ?
C12 C11 N3 C15 0.000(2) . . . . ?
C11 C12 S1 O2 0.000(1) . . . . ?
C13 C12 S1 O2 180.000(1) . . . . ?
C11 C12 S1 O1 -119.64(11) . . . 4_565 ?
C13 C12 S1 O1 60.36(11) . . . 4_565 ?
C11 C12 S1 O1 119.63(11) . . . . ?
C13 C12 S1 O1 -60.37(11) . . . . ?
 
loop_
 _geom_hbond_atom_site_label_D 
 _geom_hbond_atom_site_label_H 
 _geom_hbond_atom_site_label_A 
 _geom_hbond_distance_DH 
 _geom_hbond_distance_HA 
 _geom_hbond_distance_DA 
 _geom_hbond_angle_DHA 
 _geom_hbond_site_symmetry_A 
 _geom_hbond_publ_flag
C4 H4 O3W  0.93 2.54 3.469(3) 173.3 3_666 yes
C6 H6 O2W  0.93 2.50 3.260(4) 139.7 . yes
C9 H9 O3W  0.93 2.51 3.433(3) 172.9 3_666 yes
C10 H10 O1  0.93 2.53 3.346(4) 146.9 3_666 yes
C10 H10 O6  0.93 2.53 3.258(3) 135.3 3_666 yes
C11 H11 O1W  0.93(4) 2.38(5) 3.253(7) 156(3) . yes
C11 H11 O1W  0.93(4) 2.38(5) 3.253(7) 156(3) 4_565 yes
O1W H1WA O6  0.80(7) 2.03(7) 2.721(6) 145(6) 1_455 yes
O1W H1WB O4W  0.85(2) 2.36(6) 3.086(6) 145(8) 1_454 yes
O3W H3WA O6  0.836(19) 1.86(2) 2.698(4) 179(4) . yes
O3W H3WB N3  0.83(2) 1.94(2) 2.770(5) 178(6) 1_655 yes
O4W H4WA O2  0.84(2) 1.96(3) 2.786(4) 167(7) 1_656 yes
O4W H4WB O3W  0.85(2) 1.83(2) 2.673(4) 173(5) . yes
 
_refine_diff_density_max    0.385
_refine_diff_density_min   -0.418
_refine_diff_density_rms    0.071

_shelx_res_file
;
TITL 20201013zhaohl2_a.res in P2(1)/m
    shelx.res
    created by SHELXL-2017/1 at 16:22:01 on 21-Oct-2020
CELL  0.71073   8.5437  17.8520   9.3335   90.000  101.380   90.000
ZERR     1.00   0.0016   0.0035   0.0013    0.000    0.016    0.000
LATT   1
SYMM  - X, 1/2 + Y, - Z
SFAC  C    H    AG   N    O    S
UNIT  50   58   4    10   18   2
MERG   2
DFIX 0.85 H4Wa O4W
DFIX 0.85 H4Wb O4W
DFIX 0.85 H3Wb O3W
DFIX 0.85 H1Wb O1W
DFIX 0.85 H3Wa O3W
MORE -1
EQIV $1 -x+1, -y+1, -z+1
HTAB C4 O3W_$1
HTAB C6 O2W
HTAB C9 O3W_$1
HTAB C10 O1_$1
HTAB C10 O6_$1
HTAB C11 O1W
EQIV $2 x, -y+1/2, z
HTAB C11 O1W_$2
EQIV $3 x-1, y, z
HTAB O1W O6_$3
EQIV $4 x-1, y, z-1
HTAB O1W O4W_$4
HTAB O3W O6
EQIV $5 x+1, y, z
HTAB O3W N3_$5
EQIV $6 x+1, y, z+1
HTAB O4W O2_$6
HTAB O4W O3W
shel 999 0.84
FMAP   2   53   53
PLAN    1
SIZE     0.070   0.110   0.140
ACTA    50.00
BOND   $H
CONF
LIST   4
L.S.  15
WGHT    0.026200    1.192300
FVAR       0.32575
C1    1   -0.115321    0.448666   -0.355239    11.00000    0.05486    0.03604 =
         0.04815    0.00120   -0.01956   -0.01077
AFIX  43
H1    2   -0.165162    0.403996   -0.389298    11.00000   -1.20000
AFIX   0
C2    1    0.007695    0.446101   -0.236968    11.00000    0.05663    0.02709 =
         0.04866    0.00590   -0.02401   -0.00444
AFIX  43
H2    2    0.039168    0.400314   -0.193059    11.00000   -1.20000
AFIX   0
C3    1    0.085902    0.510918   -0.181875    11.00000    0.02925    0.02829 =
         0.02736    0.00125   -0.00110    0.00057
C4    1    0.034692    0.576334   -0.256471    11.00000    0.05547    0.02727 =
         0.03883   -0.00012   -0.01684    0.00031
AFIX  43
H4    2    0.084441    0.621541   -0.226066    11.00000   -1.20000
AFIX   0
C5    1   -0.089223    0.574673   -0.375113    11.00000    0.05278    0.03490 =
         0.04023    0.00245   -0.01577    0.00659
AFIX  43
H5    2   -0.120368    0.619329   -0.423771    11.00000   -1.20000
AFIX   0
C6    1    0.376158    0.448602    0.153309    11.00000    0.06562    0.02872 =
         0.04198    0.00165   -0.02361    0.00768
AFIX  43
H6    2    0.405918    0.404021    0.202779    11.00000   -1.20000
AFIX   0
C7    1    0.260782    0.446091    0.028413    11.00000    0.06413    0.02551 =
         0.04329   -0.00403   -0.02634    0.00386
AFIX  43
H7    2    0.214718    0.400504   -0.004748    11.00000   -1.20000
AFIX   0
C8    1    0.212694    0.510866   -0.048306    11.00000    0.02800    0.02772 =
         0.02522    0.00206   -0.00239    0.00187
C9    1    0.287828    0.575449    0.008233    11.00000    0.06713    0.02996 =
         0.05296    0.01236   -0.03182   -0.01082
AFIX  43
H9    2    0.260878    0.620843   -0.039117    11.00000   -1.20000
AFIX   0
C10   1    0.402493    0.573558    0.134183    11.00000    0.06254    0.03404 =
         0.05052    0.00604   -0.02611   -0.01540
AFIX  43
H10   2    0.450735    0.618338    0.169692    11.00000   -1.20000
AFIX   0
C11   1    0.111330    0.250000    0.892280    10.50000    0.02728    0.02935 =
         0.04280    0.00000   -0.00291    0.00000
C12   1    0.257758    0.250000    0.850347    10.50000    0.02793    0.01894 =
         0.03109    0.00000   -0.00123    0.00000
C13   1    0.401543    0.250000    0.958469    10.50000    0.02898    0.01791 =
         0.03050    0.00000   -0.00384    0.00000
C14   1    0.376606    0.250000    1.104706    10.50000    0.03968    0.02891 =
         0.02969    0.00000   -0.00530    0.00000
AFIX  43
H14   2    0.464115    0.250000    1.181843    10.50000   -1.20000
AFIX   0
C15   1    0.227346    0.250000    1.133135    10.50000    0.04867    0.04006 =
         0.03561    0.00000    0.00674    0.00000
AFIX  43
H15   2    0.217585    0.250000    1.230628    10.50000   -1.20000
AFIX   0
AG1   3    0.632654    0.511078    0.397907    11.00000    0.03662    0.06446 =
         0.03086   -0.00417   -0.01522    0.00535
N1    4   -0.167384    0.511817   -0.424114    11.00000    0.03191    0.04030 =
         0.02820   -0.00130   -0.00623    0.00257
N2    4    0.447588    0.511436    0.207258    11.00000    0.03129    0.03596 =
         0.02789    0.00027   -0.00738    0.00038
N3    4    0.092470    0.250000    1.031509    10.50000    0.03631    0.04484 =
         0.04479    0.00000    0.00978    0.00000
O1    5    0.346373    0.317752    0.634600    11.00000    0.05910    0.04623 =
         0.03732    0.00832    0.00448   -0.01048
O2    5    0.098422    0.250000    0.585058    10.50000    0.03470    0.08724 =
         0.04044    0.00000   -0.01464    0.00000
O1W   5   -0.262232    0.266286    0.734493    10.50000    0.04549    0.10748 =
         0.05400    0.00238    0.00992   -0.00189
AFIX   6
O2W   5    0.552655    0.359646    0.445895    11.00000    0.06776    0.04573 =
         0.05739    0.00932    0.00928    0.00016
H2WA  2    0.496332    0.338942    0.500089    11.00000   -1.50000
H2WB  2    0.626564    0.328587    0.441817    11.00000   -1.50000
AFIX   0
O3W   5    0.810649    0.250000    1.136005    10.50000    0.02821    0.04857 =
         0.03094    0.00000   -0.00313    0.00000
O4W   5    0.789739    0.250000    1.417996    10.50000    0.03837    0.09492 =
         0.03466    0.00000    0.00646    0.00000
O6    5    0.541160    0.250000    0.928997    10.50000    0.02574    0.04594 =
         0.03495    0.00000   -0.00297    0.00000
S1    6    0.263019    0.250000    0.662014    10.50000    0.02994    0.03417 =
         0.02701    0.00000   -0.00572    0.00000
H1WA  2   -0.337924    0.250000    0.762201    10.50000    0.09272
H1WB  2   -0.285656    0.250000    0.647640    10.50000    0.17990
H3WA  2    0.727474    0.250000    1.071376    10.50000    0.02988
H3WB  2    0.894304    0.250000    1.102733    10.50000    0.08643
H4WA  2    0.875419    0.250000    1.479779    10.50000    0.10231
H4WB  2    0.804951    0.250000    1.330620    10.50000    0.06203
H11   2    0.016928    0.250000    0.823523    10.50000    0.03596
HKLF    4




REM  20201013zhaohl2_a.res in P2(1)/m
REM R1 =  0.0271 for    2260 Fo > 4sig(Fo)  and  0.0318 for all    2524 data
REM    235 parameters refined using      5 restraints

END

WGHT      0.0262      1.1996

REM Highest difference peak  0.385,  deepest hole -0.418,  1-sigma level  0.071
Q1    1   0.2592  0.2500  0.7718  10.50000  0.05    0.39
;
_shelx_res_checksum   23549

_shelx_hkl_file
;
   0   0  -3  436.85    8.35
   0   0   3  459.50    8.39
   0   0   4 2341.19   39.89
   0   0  -4 2380.95   39.92
   0   0   5 2755.02   46.61
   0   0  -5 2744.82   46.64
   0   0   6  495.16   10.19
   0   0  -6  498.88   10.27
   0   0   7   38.12    2.16
   0   0  -7   44.49    2.32
   0   0  -8   97.82    3.57
   0   0   8   97.51    3.47
   0   0  -9  153.74    5.01
   0   0  -9  152.10    5.16
   0   0   9  152.82    5.02
   0   0 -10   73.55    3.45
   0   0  10   64.22    3.35
   0   0 -10   66.50    3.51
   0   0 -11   89.40    4.19
   0   0 -11   81.26    3.89
   0   0  11   87.61    4.04
   0   0  12    2.68    1.61
   0   0 -12    2.47    1.57
   0   0 -12    3.07    1.55
   0  -1  -3    2.26    0.46
   0   1   3    2.95    0.48
   0   1   4  174.88    4.05
   0   1  -4  167.25    4.15
   0  -1  -4  171.81    4.03
   0   1   5  100.27    3.04
   0  -1  -5  107.71    3.18
   0   1   5   94.29    3.37
   0  -1   5  102.84    3.28
   0   1  -5   97.62    3.16
   0  -1  -6   85.87    3.00
   0   1  -6   81.24    3.05
   0  -1   6   87.49    3.07
   0   1   6   77.67    3.23
   0   1   6   78.69    2.87
   0   1   7    0.67    0.89
   0  -1  -7    0.10    0.94
   0  -1   7   -0.32    1.04
   0   1  -7    1.51    1.02
   0  -1   8   12.25    1.62
   0   1   8   13.80    1.58
   0   1  -8   10.12    1.70
   0  -1  -8   13.10    1.63
   0   1  -8   12.69    1.69
   0  -1   9    1.49    1.34
   0   1  -9    3.12    1.46
   0  -1  -9    3.32    1.43
   0   1  -9    2.04    1.36
   0  -1  -9   -1.24    1.51
   0   1   9    1.50    1.33
   0  -1 -10    2.12    1.60
   0  -1  10    2.55    1.51
   0   1 -10    1.27    1.36
   0   1  10    3.55    1.52
   0  -1 -10    0.69    1.43
   0   1 -10    3.53    1.65
   0   1  11    5.69    1.64
   0  -1  11    5.35    1.84
   0  -1 -11    3.52    1.70
   0  -1 -11    6.36    1.66
   0   1 -11    6.94    1.88
   0   1 -11    2.61    1.62
   0  -1 -12    0.16    1.43
   0   1  12   -1.04    1.52
   0  -1  12   -0.18    1.51
   0  -1 -12    2.04    1.67
   0   1 -12    1.17    1.59
   0   2   3   59.76    1.73
   0  -2  -3   60.76    1.74
   0   2  -4  271.10    6.05
   0   2   4  289.02    5.79
   0  -2  -4  285.78    5.90
   0  -2  -4  285.89    5.79
   0   2   5 2551.62   42.86
   0   2   5 2438.22   43.33
   0   2  -5 2560.52   43.31
   0  -2  -5 2556.77   42.87
   0   2   6  443.45    9.02
   0   2   6  436.29    9.58
   0  -2   6  441.65    9.38
   0   2  -6  420.75    9.31
   0  -2  -6  430.93    9.02
   0   2  -7   21.66    1.86
   0  -2  -7   24.21    1.74
   0   2   7   23.98    1.71
   0  -2   7   21.51    1.80
   0   2   7   18.25    1.96
   0   2  -8   38.08    2.62
   0  -2   8   41.34    2.42
   0   2   8   37.77    2.18
   0   2  -8   39.24    2.47
   0  -2  -8   40.45    2.31
   0   2  -9  283.39    8.23
   0  -2  -9  301.57    7.60
   0  -2   9  290.75    7.77
   0  -2  -9  302.93    7.70
   0   2   9  293.18    7.50
   0   2  -9  298.95    7.97
   0  -2 -10  219.59    6.44
   0   2  10  226.16    6.54
   0  -2  10  217.77    6.73
   0  -2 -10  230.56    6.73
   0   2 -10  229.12    6.69
   0   2 -10  234.40    7.06
   0  -2 -11   48.76    2.99
   0  -2  11   43.45    3.10
   0  -2 -11   47.73    3.15
   0   2  11   49.97    3.03
   0   2 -11   41.82    2.96
   0   2 -11   43.28    3.21
   0   2 -12    1.35    1.47
   0  -2  12    1.13    1.62
   0  -2 -12   -0.47    1.56
   0   2  12   -0.50    1.50
   0  -2 -12    2.52    1.60
   0  -3  -2   48.87    1.45
   0   3   2   48.56    1.18
   0   3   2   45.82    1.44
   0  -3  -3   17.29    0.81
   0   3   3   16.98    0.98
   0   3   3   16.48    0.80
   0  -3  -3   18.12    0.96
   0   3   4  109.79    3.34
   0  -3  -4  117.61    2.92
   0  -3  -4  113.29    3.08
   0   3   4  115.02    2.88
   0   3  -5   29.72    1.88
   0   3   5   30.58    1.54
   0  -3  -5   29.64    1.58
   0  -3   6    1.57    1.04
   0   3  -6    1.11    1.08
   0  -3  -6    1.91    0.92
   0   3   6    1.77    0.89
   0   3   6    1.59    1.14
   0  -3   7   70.34    3.11
   0  -3  -7   79.63    2.98
   0   3  -7   70.45    3.19
   0   3   7   75.49    3.36
   0   3   7   82.34    2.95
   0   3  -8   10.64    1.63
   0  -3   8   10.30    1.55
   0  -3  -8    9.14    1.41
   0   3   8    9.62    1.72
   0   3   8   13.54    1.52
   0  -3   9    6.77    1.69
   0   3  -9    4.68    1.61
   0  -3  -9    5.23    1.43
   0   3  -9    5.02    1.80
   0  -3  -9    5.44    1.52
   0   3   9    5.29    1.43
   0  -3 -10    4.11    1.52
   0   3  10    4.53    1.47
   0  -3 -10    2.39    1.52
   0  -3  10    2.08    1.59
   0   3 -10    2.81    1.89
   0   3 -10    3.23    1.79
   0   3  11   26.09    2.40
   0   3 -11   22.88    2.59
   0  -3 -11   29.13    2.49
   0  -3  11   30.11    2.73
   0   3 -11   29.54    2.58
   0  -3 -11   22.48    2.19
   0   3 -12   10.48    1.94
   0  -3 -12    6.03    1.69
   0   3  12    7.34    1.73
   0  -3 -12    7.68    1.79
   0  -4  -1  328.95    6.16
   0   4   2   95.62    2.43
   0  -4  -2  100.25    2.46
   0  -4   2   96.69    2.52
   0   4   3  179.41    3.62
   0   4   3  180.03    4.08
   0  -4  -3  184.05    4.04
   0  -4  -3  181.55    3.64
   0   4   4 1741.01   29.20
   0  -4  -4 1722.00   29.23
   0   4   4 1718.15   29.70
   0   4   5 1182.81   20.59
   0  -4  -5 1187.04   20.64
   0   4   5 1150.50   21.49
   0   4  -6  415.40    7.29
   0  -4  -6  411.26    6.40
   0   4   6  414.05    7.41
   0   4   6  414.21    6.30
   0   4   7   12.68    1.34
   0   4  -7   12.16    1.58
   0   4   7   14.29    1.76
   0  -4   7    8.45    1.32
   0  -4  -7   14.09    1.40
   0   4  -8    5.77    1.46
   0  -4   8    6.66    1.45
   0   4   8    5.01    1.16
   0  -4  -8    8.67    1.30
   0   4   8    9.48    1.76
   0  -4  -8    4.20    1.00
   0   4  -9  149.35    5.35
   0   4   9  142.08    4.60
   0   4  -9  138.57    5.38
   0  -4  -9  152.19    4.80
   0   4   9  132.69    5.24
   0  -4   9  140.91    5.04
   0  -4  -9  152.37    4.82
   0  -4  10  111.39    4.66
   0  -4 -10  122.23    4.48
   0   4 -10  109.89    4.80
   0   4  10  117.05    4.29
   0   4 -10  126.72    5.27
   0  -4 -10  119.05    4.39
   0  -4  11  119.94    4.96
   0  -4 -11  106.08    4.35
   0   4  11  116.29    4.46
   0   4 -11  120.09    5.10
   0  -4 -11  109.56    4.45
   0   4 -12    5.62    1.80
   0  -4 -12    5.92    1.70
   0  -5   0   45.00    1.00
   0   5   0   -0.27    0.25
   0   5  -1  320.49    6.05
   0  -5   1  320.94    6.06
   0   5   1  307.54    6.16
   0   5   2  663.67   12.05
   0   5  -2  669.29   12.16
   0  -5  -2  686.53   12.11
   0  -5   2  669.37   12.14
   0  -5  -3   79.73    1.87
   0  -5  -3   80.87    2.38
   0   5   3   80.23    2.40
   0   5   4   15.24    1.21
   0   5   4   14.85    0.88
   0  -5  -4   15.81    0.92
   0   5   5    3.69    1.22
   0   5   5    3.92    0.79
   0  -5  -5    6.13    0.87
   0   5   6   29.23    1.60
   0  -5  -6   31.05    1.65
   0   5   6   27.07    2.05
   0   5   7   25.35    2.14
   0   5  -7   27.30    2.11
   0  -5  -7   29.96    1.71
   0   5   7   32.02    1.73
   0   5   8    6.45    1.57
   0   5  -8    3.12    1.39
   0  -5   8    3.58    1.33
   0  -5  -8    4.73    1.13
   0   5   8    4.16    1.11
   0  -5  -8    3.92    1.14
   0   5   9   11.10    2.15
   0  -5  -9   12.71    1.68
   0  -5  -9   13.61    1.73
   0  -5   9   11.68    1.92
   0   5  -9    8.66    1.85
   0   5   9   11.99    1.60
   0   5  -9   10.27    2.15
   0  -5 -10    1.70    1.36
   0  -5 -10    1.86    1.46
   0   5  10    1.88    1.91
   0  -5  10    1.19    1.57
   0   5 -10    1.16    1.81
   0   5  10    2.59    1.45
   0   5 -10    2.86    1.76
   0  -5  11    4.25    1.84
   0  -5 -11    0.86    1.44
   0  -5 -11    1.90    1.53
   0   5 -11   -1.07    2.00
   0   5 -11    1.97    1.74
   0  -6   0    1.64    0.33
   0   6   0    2.54    0.37
   0  -6  -1 2850.07   47.01
   0   6  -1 2844.76   46.74
   0  -6   1 2844.76   46.74
   0   6   1 2702.35   46.95
   0  -6  -2  135.61    3.34
   0   6  -2  128.97    3.31
   0  -6   2  137.46    3.38
   0   6   2  132.85    3.31
   0   6  -3    1.59    0.71
   0   6   3    2.55    0.68
   0  -6  -3    2.47    0.33
   0   6   4  334.43    7.09
   0  -6  -4  331.14    6.27
   0   6   5 1149.92   19.96
   0   6   5 1153.28   20.80
   0  -6  -5 1149.74   20.00
   0   6   6  381.78    7.71
   0  -6  -6  377.51    7.75
   0   6   6  380.42    8.86
   0   6   7    2.13    1.47
   0  -6  -7    1.25    0.94
   0  -6  -7    0.10    0.31
   0   6   8    3.34    1.47
   0   6  -8    3.08    1.42
   0   6   8    3.77    1.10
   0  -6  -8    4.43    1.14
   0  -6   8    3.41    1.23
   0  -6  -8    4.72    1.20
   0   6  -9  179.85    6.04
   0  -6   9  167.87    5.81
   0  -6  -9  180.59    5.21
   0  -6  -9  182.13    5.43
   0   6   9  181.85    6.12
   0   6   9  179.82    5.09
   0  -6 -10  191.68    5.70
   0  -6 -10  190.47    5.82
   0   6 -10  205.73    6.98
   0   6 -10  182.42    6.46
   0  -6  10  183.45    6.28
   0   6  10  191.74    6.72
   0   6 -11   15.19    2.58
   0   6 -11   22.80    2.63
   0  -6  11   25.23    2.67
   0  -6 -11   18.45    2.05
   0  -6 -11   18.99    2.13
   0   7   0    0.03    0.36
   0  -7   0    0.27    0.35
   0   7  -1  132.68    3.20
   0   7   1  129.81    3.43
   0   7   2  519.80    9.88
   0   7  -2  514.58    9.83
   0   7  -3  101.46    3.07
   0   7   3   98.26    2.93
   0  -7  -4  139.56    2.99
   0   7   4  144.98    3.91
   0  -7  -5   13.26    0.96
   0   7   5   13.63    1.38
   0   7   6   69.63    3.30
   0  -7  -6   74.90    2.43
   0   7   7  261.47    5.88
   0  -7  -7  258.30    4.27
   0  -7  -8   11.62    1.45
   0   7   8   11.69    1.93
   0   7  -8   11.82    1.83
   0  -7  -8   10.18    1.29
   0   7  -9    0.51    1.52
   0  -7  -9    0.62    1.24
   0   7   9    0.17    1.56
   0  -7  -9    1.36    1.17
   0  -7   9    0.65    1.44
   0   7  10    8.92    2.23
   0   7 -10    8.91    2.22
   0  -7  10   10.56    2.13
   0  -7 -10    7.61    1.53
   0   7 -10    4.14    1.83
   0  -7 -10    7.19    1.65
   0  -7 -11   43.70    2.79
   0  -7 -11   37.54    2.58
   0   8   0 2718.38   45.20
   0  -8   0 2740.97   45.20
   0  -8   1  442.01    8.17
   0   8  -1  434.61    8.14
   0  -8  -1  419.93    7.42
   0   8   1  436.66    8.56
   0   8  -2  248.79    5.46
   0   8   2  242.06    5.51
   0   8  -3    4.75    0.89
   0   8   3    4.46    0.88
   0  -8  -4  500.26    8.88
   0   8  -4  505.52   10.47
   0  -8   5  344.16    8.02
   0   8   5  341.82    7.73
   0   8  -5  333.23    7.98
   0  -8  -5  353.40    6.63
   0   8   6  290.70    6.82
   0  -8  -6  291.79    5.79
   0  -8  -7   24.19    1.88
   0  -8  -7   23.71    1.53
   0   8   7   22.95    2.28
   0  -8  -8   30.11    2.13
   0   8   8   29.35    2.56
   0  -8  -8   29.25    1.74
   0  -8  -9   43.07    2.60
   0  -8  -9   43.67    2.32
   0   8   9   42.05    3.18
   0   8  -9   43.68    3.14
   0  -8 -10   77.20    3.53
   0  -8  10   78.45    4.06
   0   8 -10   73.43    4.05
   0   8 -10   68.28    4.20
   0  -8 -10   73.05    3.16
   0   8  10   82.06    4.38
   0  -9   0   24.07    1.04
   0   9   0    3.87    0.62
   0  -9   1  190.47    4.24
   0   9  -1  185.48    4.19
   0  -9  -1  185.28    3.55
   0   9   1  186.46    4.65
   0   9  -2  491.18    9.62
   0   9   2  489.83    9.81
   0   9  -3    6.53    1.00
   0   9   3    5.12    1.00
   0   9   4    0.42    0.90
   0   9  -4    1.88    1.02
   0  -9   5   12.70    1.54
   0   9   5   10.18    1.38
   0   9  -5   11.74    1.61
   0  -9  -5   11.13    0.76
   0  -9  -6  147.10    2.72
   0   9   6  145.76    3.96
   0   9  -6  146.90    4.37
   0  -9   6  152.31    4.34
   0  -9  -7  106.62    3.09
   0  -9  -7  109.97    3.92
   0   9   7  105.79    4.29
   0  -9   7  111.10    4.30
   0   9  -7  106.65    4.33
   0  -9  -8    4.53    1.42
   0  -9  -8    6.78    1.09
   0   9   8    6.70    1.75
   0  -9   9   10.77    2.18
   0  -9  -9    8.92    1.62
   0  -9  -9    9.80    1.40
   0   9   9   10.96    2.16
   0   9 -10    7.30    2.02
   0  -9 -10    5.95    1.40
   0   9 -10    6.74    2.23
   0   9  10    7.92    2.13
   0  -9  10   13.74    2.47
   0  -9 -10    7.04    1.66
   0  -9 -11    5.83    1.69
   0 -10   0   13.16    0.86
   0  10   0   14.43    0.87
   0  10   1  459.88    9.43
   0  10  -1  468.14    8.87
   0 -10   1  473.09    8.90
   0 -10  -1  454.64    8.12
   0  10   2    5.03    1.08
   0  10  -2    5.45    0.95
   0  10   3    5.18    1.04
   0  10  -3    7.55    1.12
   0  10  -4   60.59    2.69
   0  10   4   66.99    2.70
   0  10   5  447.25    6.41
   0  10  -5  429.17    6.77
   0 -10   5  432.91    6.70
   0  10  -6  166.26    5.40
   0 -10  -6  170.37    3.71
   0  10   6  169.76    5.07
   0 -10  -6  175.74    5.05
   0 -10   6  164.54    5.28
   0 -10  -7    1.86    1.20
   0  10  -7    2.08    1.53
   0 -10  -7    1.45    0.77
   0 -10   7    0.43    1.51
   0  10   8   -0.84    1.47
   0  10  -8   -0.33    1.57
   0 -10   8   -1.76    1.64
   0 -10  -8   -0.61    0.84
   0 -10  -8    0.13    1.22
   0  10   9  101.54    4.82
   0 -10  -9  110.74    3.42
   0 -10   9  104.15    4.93
   0 -10  -9  100.80    4.10
   0  10  10  113.38    5.25
   0 -10 -10  111.79    4.46
   0 -10  10  123.57    5.52
   0 -10 -11    6.40    1.79
   0  11   0   -0.29    0.56
   0 -11   0    0.46    0.61
   0  11  -1   44.81    1.82
   0 -11  -1   47.03    1.35
   0  11   1   50.45    2.40
   0  11  -2  213.80    5.11
   0  11   2  210.78    5.46
   0  11  -3  107.50    3.50
   0  11   3  111.69    3.60
   0 -11  -4    2.86    0.84
   0  11  -4  133.06    3.67
   0 -11   4   54.74    2.38
   0  11   4  134.36    3.56
   0 -11   5    2.45    1.33
   0  11  -5    0.12    1.24
   0 -11  -5    1.47    1.21
   0  11   5    1.38    1.23
   0  11   6   51.45    2.73
   0 -11  -6   44.32    2.50
   0 -11   6   45.06    2.73
   0 -11  -6   42.06    1.30
   0  11  -6   48.72    2.93
   0  11  -7  168.98    5.75
   0 -11  -7  172.91    3.87
   0  11   7  180.74    5.49
   0 -11   7  177.40    5.80
   0 -11  -7  180.68    5.41
   0  11  -8   64.20    3.56
   0  11   8   71.19    3.86
   0 -11   8   67.93    3.65
   0 -11  -8   73.29    3.37
   0 -11  -8   71.49    2.34
   0 -11   9    3.81    1.68
   0 -11  -9    5.49    1.08
   0 -11  -9    3.39    1.50
   0  11  -9    3.01    1.84
   0  11   9    0.96    1.85
   0 -11 -10    4.38    1.60
   0 -12   0 1577.90   26.66
   0  12   0 1599.68   26.64
   0 -12  -1   39.38    1.25
   0  12   1   35.55    2.19
   0  12  -1   35.27    1.69
   0  12  -2   25.83    1.58
   0  12   2   26.20    1.90
   0  12   3   42.14    2.29
   0  12  -3   40.55    2.14
   0  12   4  252.55    6.40
   0  12  -4  242.05    6.35
   0 -12   4  242.53    6.36
   0 -12  -4  253.93    6.43
   0  12  -5  126.38    4.42
   0  12   5  122.92    4.18
   0 -12  -5  118.24    4.13
   0 -12   5  118.00    4.29
   0 -12  -6   49.74    2.69
   0  12  -6   40.55    2.76
   0 -12   6   42.06    2.77
   0  12   6   52.90    2.81
   0 -12  -7    4.18    0.53
   0  12   7    4.13    1.43
   0 -12   7    5.98    1.66
   0  12  -7    4.08    1.55
   0 -12  -7    5.64    1.47
   0 -12  -8    2.46    1.47
   0 -12   8    4.41    1.66
   0  12   8    2.85    1.73
   0  12  -8    4.37    1.78
   0 -12  -8    2.66    0.64
   0 -12  -9   10.52    1.78
   0 -12   9    9.31    1.95
   0  12  -9   14.68    2.22
   0 -12 -10   14.90    2.03
   0 -13   0   14.56    1.17
   0  13   0   10.79    1.09
   0  13   0   15.51    1.90
   0  13   1  142.26    3.83
   0 -13  -1  137.58    2.04
   0  13  -1  144.67    3.01
   0  13  -2  297.10    4.65
   0  13   2  288.96    5.36
   0  13   3  193.84    5.46
   0  13  -3  200.33    5.34
   0  13   4   12.29    1.64
   0  13  -4    9.95    1.62
   0 -13   4   15.41    1.74
   0  13  -5   12.33    1.77
   0 -13  -5   12.59    1.74
   0  13   5   11.78    1.69
   0 -13   5   10.47    1.72
   0  13  -6   63.08    3.28
   0 -13   6   65.05    3.32
   0 -13  -6   67.69    3.24
   0  13   6   69.36    3.27
   0 -13  -7   20.37    2.00
   0  13   7   16.67    2.00
   0 -13   7   23.54    2.27
   0  13  -7   19.06    2.27
   0 -13  -8   11.85    0.57
   0  13  -8   12.93    2.16
   0 -13  -8   18.23    2.03
   0 -13   8   17.26    2.25
   0 -13   9    4.20    1.79
   0 -13  -9    3.35    1.58
   0  13  -9    0.20    1.67
   0  13   9    1.41    1.83
   0 -13 -10   -0.16    1.42
   0  14   0   28.05    2.20
   0 -14   0   33.94    1.55
   0  14   0   29.12    1.43
   0  14   1   81.49    3.27
   0 -14  -1   74.13    1.83
   0  14  -1   76.53    2.50
   0  14  -2   10.48    1.29
   0  14   2   10.18    1.61
   0  14  -3    2.46    1.15
   0  14   3    0.12    1.29
   0 -14   3    0.20    0.33
   0  14  -4    0.92    1.24
   0  14   4    2.14    1.35
   0 -14   4    2.07    1.21
   0 -14  -5  122.94    4.40
   0  14  -5  124.70    4.50
   0 -14   5  123.60    4.48
   0  14   5  117.73    4.33
   0  14  -6   65.73    3.42
   0 -14  -6   62.13    3.13
   0 -14   6   58.80    3.26
   0  14   6   61.18    3.16
   0 -14  -7   16.78    1.97
   0  14   7   15.53    1.98
   0 -14   7   17.09    2.17
   0  14  -7   15.30    2.07
   0  14   8    0.47    1.48
   0  14  -8    0.74    1.62
   0 -14   8    0.18    1.56
   0 -14  -8    1.66    1.51
   0 -14  -9   16.81    2.18
   0 -14   9   21.06    2.52
   0  14  -9   16.50    2.44
   0 -14 -10   20.47    2.29
   0  15   0    2.42    0.83
   0  15   0    3.80    1.51
   0  15   0    1.38    1.49
   0  15   1   -0.49    1.26
   0 -15  -1    0.48    0.53
   0  15  -1   -0.55    0.92
   0  15   2   -0.99    1.47
   0  15  -2    1.90    1.64
   0  15  -2   -0.26    1.10
   0  15  -3   65.64    3.56
   0  15   3   63.36    3.06
   0  15  -3   64.03    2.79
   0  15   4   60.71    3.10
   0  15  -4   59.82    3.00
   0 -15   4   58.94    2.96
   0 -15   5    0.81    1.41
   0  15  -5    0.68    1.35
   0  15   5    1.74    1.37
   0 -15  -6    5.24    1.53
   0 -15   6    2.73    1.43
   0  15   6    5.24    1.51
   0  15  -6    4.46    1.54
   0  15   7   48.42    3.01
   0 -15   7   47.24    3.19
   0 -15  -7   52.16    3.05
   0  15  -7   50.76    3.27
   0 -15   8   64.51    3.74
   0  15   8   62.69    3.47
   0 -15  -8   65.36    3.48
   0  15  -8   63.36    3.77
   0 -15  -9    7.74    1.82
   0  16   0  576.65   12.53
   0  16   0  571.50   12.86
   0  16   1   -0.26    1.43
   0  16  -1    0.72    0.91
   0  16  -1   -0.60    1.56
   0 -16  -1    0.29    0.48
   0  16  -2    4.26    1.12
   0  16  -2    2.03    1.68
   0  16   2    3.30    1.39
   0  16  -3   11.42    2.13
   0  16   3   10.97    1.77
   0  16  -3   12.06    1.52
   0 -16   3   13.29    1.63
   0  16   4   58.13    3.11
   0  16  -4   58.05    3.00
   0 -16   4   63.58    3.11
   0  16   5   21.48    2.13
   0  16  -5   24.91    2.28
   0 -16   5   23.83    2.22
   0  16   6    0.45    1.48
   0 -16   6    0.31    1.50
   0  16  -6    0.32    1.44
   0  16  -7    0.18    1.52
   0  16   7    0.79    1.49
   0 -16   7    0.17    1.56
   0  16  -8    1.94    1.73
   0  16   8    1.01    1.59
   0 -16   8    1.88    1.62
   0 -16  -8    1.31    1.54
   0 -16  -9    1.37    1.61
   0  17   0    8.45    1.79
   0  17   0    7.61    2.06
   0  17   1   28.44    2.44
   0  17  -1   26.17    2.50
   0  17  -2   45.75    2.22
   0  17  -2   47.86    3.11
   0  17   2   48.18    2.85
   0  17  -3   59.18    2.79
   0  17  -3   60.12    3.67
   0  17   3   56.45    3.19
   0 -17   3   59.84    2.93
   0  17   4    1.29    1.37
   0  17  -4    2.91    1.37
   0 -17   4    2.06    1.35
   0  17  -5   18.23    2.10
   0 -17   5   23.12    2.28
   0  17   5   26.32    2.41
   0  17   6   21.73    2.25
   0  17  -6   20.70    2.23
   0 -17   6   21.20    2.27
   0 -17   7   11.49    2.04
   0  17   7   12.64    2.03
   0  17  -7   12.95    2.06
   0 -17   8    9.24    2.05
   0  17   8    7.34    1.87
   0  18   0   11.59    1.96
   0  18   0   11.73    2.09
   0  18  -1    3.28    0.99
   0  18  -1    4.80    1.87
   0  18   1    5.39    1.60
   0  18  -2    0.38    0.99
   0 -18   2   -0.10    0.33
   0  18   2    1.21    1.53
   0  18  -2    2.12    1.67
   0  18  -3   -0.65    1.57
   0  18  -3   -0.18    1.64
   0  18  -3    0.11    1.21
   0 -18   3    0.69    1.23
   0  18   3    0.15    1.46
   0  18   4    2.29    1.58
   0  18  -4    2.09    1.35
   0 -18   4    1.06    1.39
   0 -18   5   23.67    2.35
   0  18  -5   19.73    2.17
   0  18   5   17.54    2.19
   0  18  -6    2.99    1.66
   0 -18   6    2.64    1.59
   0  18   6    3.14    1.64
   0  18   7   -0.52    1.51
   0  18  -7    0.55    1.51
   0 -18   7   -0.54    1.63
   0  18   8    0.18    1.62
   0  19   0    2.41    1.55
   0  19   0    0.91    1.61
   0  19  -1    2.55    1.83
   0  19   1    2.08    1.46
   0  19   1    2.56    1.77
   0  19  -1    2.01    0.94
   0  19  -1    1.80    1.54
   0  19  -2   18.57    1.66
   0  19   2   21.30    2.24
   0  19  -2   20.62    2.55
   0  19  -3   13.92    2.18
   0  19  -3   14.21    1.68
   0  19   3   12.28    1.98
   0  19  -3   12.06    2.34
   0 -19   3   14.00    1.78
   0  19  -4   32.68    2.86
   0  19  -4   35.56    2.50
   0 -19   4   34.54    2.48
   0  19   4   35.41    2.73
   0  19  -5   -0.15    1.52
   0 -19   5    0.15    1.45
   0  19   5    2.17    1.63
   0 -19   6    0.17    1.67
   0  19  -6    1.54    1.61
   0  19   6   -0.70    1.56
   0  19   7   45.88    3.21
   0 -19   7   40.78    3.17
   0  19  -7   43.95    3.29
   0  20   0   55.60    3.43
   0  20   0   50.26    3.46
   0  20   1    2.90    1.58
   0  20   1    2.33    1.87
   0  20  -1    0.39    1.79
   0  20  -1    2.43    1.52
   0  20  -2    0.20    1.67
   0  20  -2    1.00    1.09
   0  20   2   -0.17    1.60
   0 -20   2    0.71    0.97
   0 -20   3    0.12    1.20
   0  20   3   -1.01    1.53
   0  20  -3   -0.24    1.13
   0  20  -3   -1.48    1.68
   0  20  -4    5.35    1.88
   0  20   4    8.04    1.88
   0 -20   4    7.64    1.64
   0  20  -4    7.81    1.62
   0 -20   5   -1.25    1.49
   0  20  -5   -1.25    1.42
   0  20   5   -0.70    1.63
   0  20   6    1.82    1.60
   0 -20   6   -1.04    1.63
   0  20  -6    0.70    1.55
   0  21   0   -1.27    1.64
   0  21   0   -0.20    1.83
   0  21   1   23.86    2.81
   0  21  -1   19.78    2.70
   0  21  -1   18.17    2.39
   0  21   1   18.66    2.41
   0 -21   2   48.00    2.51
   0  21  -2   49.62    2.48
   0  21   2   51.90    3.34
   0  21  -2   48.34    3.58
   0 -21   3   -0.24    1.31
   0  21  -3    1.36    1.23
   0  21   3    0.18    1.57
   0  21   4    4.16    1.75
   0  21  -4    0.70    1.38
   0 -21   5   -1.59    1.54
   0  21  -5   -1.59    1.47
   0  21   5    0.19    1.54
   0  21  -6    4.10    1.79
   0 -21   6    4.20    1.81
   0  22   0    8.44    2.00
   0  22   0    6.73    2.23
   0  22   1    1.74    1.96
   0  22  -1    4.67    1.82
   0  22   1    6.32    1.97
   0  22  -1    5.04    2.17
   0  22   2   -1.11    2.16
   0  22  -2   -0.67    1.76
   0  22   2    0.38    1.59
   0  22   3    1.32    1.60
   0 -22   4    3.15    1.50
   0 -22   5    1.94    1.47
   0 -22   6    1.97    1.75
   1   0 -12   44.58    3.29
  -1   0  12   47.06    3.18
   1   0 -11    4.54    1.39
   1   0 -11    3.34    1.53
  -1   0  11    6.67    1.68
   1   0 -10   52.84    2.81
  -1   0  10   56.00    3.07
   1   0  -9  151.64    4.44
  -1   0   9  172.86    4.58
  -1   0   8  153.87    4.84
   1   0  -8  158.50    4.92
  -1   0   7  125.70    4.02
   1   0  -7  131.86    4.12
   1   0  -6   28.80    1.75
  -1   0   6   31.73    1.82
  -1   0   5  100.26    3.11
   1   0  -5  106.58    3.16
  -1   0   4 1442.11   24.95
   1   0  -4 1447.74   24.94
   1   0  -3 1569.05   26.83
  -1   0   3 1560.41   26.62
   1   0  -3 1577.50   26.60
  -1   0  -2 4086.48   68.67
   1   0   2 4112.21   68.66
  -1   0  -2 4315.06   68.76
  -1   0  -3 1326.39   22.81
  -1   0  -3 1301.10   22.76
   1   0   3 1319.12   22.70
  -1   0  -4  161.73    4.05
   1   0   4  153.77    3.96
  -1   0  -4  153.66    4.13
   1   0   5  658.27   12.69
  -1   0  -5  682.37   13.06
  -1   0  -5  652.00   12.83
  -1   0  -6  713.30   14.00
  -1   0  -6  710.45   14.25
   1   0   6  711.16   13.85
  -1   0  -7  328.58    7.91
   1   0   7  328.99    7.79
  -1   0  -8   58.54    2.99
   1   0   8   55.21    2.86
  -1   0  -8   62.35    3.03
  -1   0  -9    4.03    1.45
   1   0   9    5.08    1.46
  -1   0  -9    3.66    1.32
   1   0  10  134.86    4.97
  -1   0 -10  131.14    5.10
  -1   0 -10  146.67    5.29
   1   0  11   82.05    4.00
  -1   0 -11   92.37    4.32
  -1   0 -11   79.70    4.05
  -1   0 -12   44.73    3.23
   1   0  12   46.92    3.24
  -1   1  12    3.21    1.68
  -1  -1  12    3.92    1.71
   1   1 -12    3.41    1.86
   1   1 -12    1.57    1.39
   1  -1 -12    3.22    1.75
   1   1 -11    1.59    1.34
   1   1 -11    3.27    1.59
   1  -1 -11    0.49    1.50
  -1   1  11    0.30    1.39
   1  -1 -11    1.39    1.27
  -1  -1  11    0.16    1.51
   1  -1 -10   -0.23    1.13
   1   1 -10   -1.34    1.28
  -1   1  10    0.14    1.31
   1   1 -10   -0.46    1.44
   1  -1 -10    0.44    1.38
  -1  -1  10    0.30    1.31
   1  -1  -9    0.10    0.33
   1  -1  -9    3.45    1.41
  -1   1   9    0.74    1.27
   1   1  -9    0.65    0.74
  -1  -1   9    4.01    1.51
   1   1  -9    3.82    1.51
  -1  -1   8    1.89    1.29
  -1   1   8    3.27    1.28
   1   1  -8    3.00    1.33
   1  -1  -8    3.90    1.31
   1   1  -7   23.22    1.83
  -1  -1   7   20.96    1.82
  -1   1   7   22.91    1.75
   1  -1  -7   24.76    1.74
   1  -1  -6    2.97    0.93
  -1   1   6    1.60    0.87
   1   1  -6    3.63    1.06
  -1  -1   6    1.41    0.88
   1  -1  -5   11.36    1.02
  -1  -1   5   14.15    1.29
   1  -1  -5   16.58    1.24
  -1   1   5   14.13    1.20
   1   1  -5   14.55    1.33
   1   1  -4  615.00   11.51
  -1  -1   4  603.24   11.51
  -1   1   4  628.00   11.33
   1  -1  -4  609.76   10.98
   1  -1  -4  615.12   11.30
  -1   1   3   75.95    2.04
   1   1  -3   78.59    2.18
  -1  -1   3   70.06    2.15
   1   1  -3   70.92    2.21
   1  -1  -3   73.28    1.78
   1  -1  -3   75.64    2.02
   1   1   2    2.56    0.49
  -1  -1  -2    3.08    0.44
  -1   1  -3  162.20    4.00
   1   1   3  168.43    3.97
  -1  -1  -3  170.72    3.90
  -1   1  -3  175.88    4.06
   1   1   3  172.14    3.87
   1   1   4   20.55    1.28
  -1  -1  -4   19.09    1.29
   1   1   4   19.66    1.40
  -1   1  -4   19.58    1.36
  -1   1  -5   -0.18    0.83
  -1  -1  -5    0.85    0.71
   1   1   5    0.59    0.70
   1  -1   5    0.80    0.70
  -1   1  -6  156.95    4.82
   1   1   6  161.90    4.50
  -1  -1  -6  156.85    4.51
   1  -1   6  166.73    4.65
  -1   1  -6  158.71    4.66
  -1   1  -7   31.66    2.20
   1   1   7   32.44    2.07
  -1   1  -7   30.89    2.25
   1  -1   7   30.02    2.10
  -1  -1  -7   32.85    2.13
  -1   1  -8   11.24    1.71
   1  -1   8    9.64    1.54
   1   1   8   12.38    1.56
  -1   1  -8   10.24    1.66
  -1  -1  -8    9.25    1.54
  -1  -1  -8   10.91    1.62
  -1   1  -9   13.10    1.89
   1   1   9    8.93    1.61
   1  -1   9   11.97    1.79
  -1   1  -9    7.68    1.58
  -1  -1  -9    9.38    1.69
  -1  -1  -9    8.01    1.61
  -1   1 -10    8.85    2.02
  -1   1 -10    8.45    1.99
  -1  -1 -10   12.01    2.01
   1  -1  10    8.50    1.83
  -1  -1 -10    7.86    1.90
   1   1  10    9.93    1.85
   1  -1  11    4.16    1.77
  -1  -1 -11    2.29    1.71
  -1   1 -11    2.60    1.75
  -1  -1 -11    2.54    1.69
  -1   1 -11    1.39    1.79
   1   1  11    3.62    1.65
  -1  -1 -12    0.18    1.68
  -1  -1 -12    0.58    1.53
  -1   1 -12   -0.19    1.60
   1   2 -12   37.15    2.66
   1   2 -12   41.41    3.22
  -1  -2  12   38.70    3.07
   1  -2 -12   34.49    2.90
  -1   2  12   45.90    3.01
   1   2 -11   -0.18    1.54
   1  -2 -11    0.63    1.46
   1   2 -11    1.77    1.30
   1  -2 -11   -0.25    1.25
  -1  -2  11    0.34    1.47
  -1   2  11   -0.29    1.39
   1  -2 -10   23.39    1.93
   1  -2 -10   27.14    2.29
   1   2 -10   27.92    2.45
   1   2 -10   26.40    2.09
  -1   2  10   22.27    2.08
  -1  -2  10   25.88    2.35
   1  -2  -9  194.87    4.76
  -1   2   9  194.02    4.68
  -1  -2   9  202.12    5.12
   1   2  -9  195.58    5.15
  -1   2   8  395.59    8.93
   1   2  -8  396.03    9.32
   1  -2  -8  404.06    9.01
  -1  -2   8  394.16    9.30
  -1   2   7   87.40    3.17
   1   2  -7   87.38    3.43
   1  -2  -7   92.11    3.24
  -1  -2   7   90.92    3.44
   1  -2  -6    3.35    0.94
   1   2  -6    4.91    1.12
  -1  -2   6    3.42    1.17
  -1   2   6    2.33    0.95
   1  -2  -5 1103.31   19.17
  -1   2   5 1103.71   19.43
   1  -2  -5 1088.25   19.39
   1   2  -5 1080.39   19.80
   1   2  -4  883.16   16.32
   1  -2  -4  914.02   15.74
   1  -2  -4  912.98   15.96
  -1   2   4  905.33   15.95
   1  -2  -3   88.56    2.07
   1  -2  -3   88.56    2.21
   1   2  -3   91.47    2.61
  -1   2   3   96.19    2.27
  -1  -2  -2  696.40   12.16
  -1  -2  -2  692.07   12.42
  -1  -2  -3  134.79    3.27
   1   2   3  142.13    3.27
  -1  -2  -3  141.12    3.52
   1   2   3  134.98    3.43
   1   2   4  198.11    4.78
  -1  -2  -4  193.40    4.53
  -1   2  -4  186.83    4.76
   1   2   4  194.88    4.49
   1   2   5  193.84    4.73
  -1  -2  -5  189.52    4.78
  -1   2  -5  194.72    5.06
  -1   2  -5  189.35    5.05
  -1   2  -6  615.18   12.54
  -1  -2  -6  596.09   12.14
   1   2   6  606.18   12.62
   1  -2   6  619.25   12.44
  -1   2  -6  634.02   12.81
   1   2   6  625.63   12.17
   1   2   7  804.15   15.52
   1   2   7  786.26   14.88
  -1   2  -7  789.08   15.36
  -1  -2  -7  791.07   15.03
   1  -2   7  773.23   15.15
  -1   2  -7  798.32   15.60
   1   2   8   85.20    3.39
  -1   2  -8   77.77    3.68
  -1  -2  -8   76.78    3.43
   1  -2   8   80.16    3.44
  -1  -2  -8   78.44    3.36
  -1   2  -8   71.36    3.44
   1  -2   9    0.72    1.33
  -1  -2  -9    0.28    1.27
  -1   2  -9   -0.17    1.57
   1   2   9    1.16    1.17
  -1  -2  -9    1.93    1.34
  -1   2  -9    1.39    1.45
  -1  -2 -10  301.68    8.24
  -1   2 -10  305.27    8.55
   1  -2  10  291.14    8.22
   1   2  10  309.05    8.10
  -1   2 -10  306.07    8.36
  -1  -2 -10  307.13    8.25
  -1   2 -11  252.22    7.79
  -1  -2 -11  239.81    7.35
  -1   2 -11  247.95    7.56
  -1  -2 -11  254.27    7.52
   1  -2  11  252.43    7.60
  -1  -2 -12   51.08    3.42
  -1   2 -12   55.35    3.53
  -1  -2 -12   52.66    3.39
  -1  -3  12    0.76    1.51
  -1   3  12    0.79    1.46
   1  -3 -12    2.01    1.66
   1   3 -12   -0.15    1.43
   1  -3 -11    8.34    1.75
   1   3 -11    7.64    1.87
  -1   3  11    9.00    1.76
  -1  -3  11    9.94    2.02
   1   3 -11    9.56    1.64
   1  -3 -11   10.00    1.59
   1   3 -10   16.81    2.24
   1  -3 -10   18.71    2.00
   1  -3 -10   16.60    1.73
  -1   3  10   16.15    1.83
  -1  -3  10   18.44    2.22
  -1  -3   9   20.86    2.16
  -1   3   9   18.26    1.77
   1   3  -9   22.83    2.27
   1  -3  -9   19.86    1.87
  -1   3   8    7.56    1.36
   1   3  -8   10.68    1.75
   1  -3  -8    9.33    1.44
  -1  -3   8    9.14    1.78
  -1  -3   7  150.45    4.70
  -1   3   7  143.64    4.21
   1  -3  -7  148.64    4.26
   1  -3  -6  102.75    3.19
  -1  -3   6  104.79    3.61
   1   3  -6  100.93    3.54
  -1   3   6  108.79    3.22
  -1   3   5  133.96    3.41
   1   3  -5  128.06    3.83
   1  -3  -5  127.25    3.24
   1  -3  -5  128.19    3.37
   1  -3  -4   68.38    1.99
   1  -3  -4   69.89    2.03
  -1   3   4   69.48    2.04
  -1   3   3   51.63    1.54
  -1   3   3   54.00    1.49
   1  -3  -3   49.89    1.45
   1  -3  -3   52.04    1.49
  -1   3   2   65.95    1.47
  -1   3   2   64.14    1.56
   1  -3  -2   64.39    1.55
  -1  -3  -2   48.05    1.41
  -1  -3  -2   44.99    1.63
  -1  -3  -3    5.47    0.62
   1   3   4   46.23    1.77
  -1  -3  -4   44.69    1.76
   1   3   4   44.41    1.99
  -1  -3  -5   17.86    1.30
  -1   3  -5   17.81    1.46
  -1   3  -5   14.48    1.47
   1   3   5   13.60    1.16
   1   3   5   13.21    1.35
   1  -3   6  102.54    3.62
   1   3   6  106.76    3.39
   1   3   6  107.27    3.84
  -1  -3  -6  112.02    3.51
  -1   3  -6  100.92    3.80
  -1   3  -6  111.19    3.83
  -1   3  -7   24.02    2.19
  -1  -3  -7   25.36    1.81
   1   3   7   23.50    1.75
  -1   3  -7   21.91    1.93
   1   3   7   26.15    2.22
  -1  -3  -7   18.53    1.73
   1  -3   7   22.88    1.99
   1  -3   8   15.30    1.72
   1   3   8   13.20    1.54
  -1  -3  -8   15.51    1.78
   1   3   8   17.84    1.99
  -1   3  -8   14.38    1.87
  -1   3  -8   21.20    2.18
  -1  -3  -8   13.91    1.63
  -1  -3  -9   76.93    3.49
  -1   3  -9   76.61    3.81
  -1   3  -9   76.98    3.97
   1   3   9   77.71    3.41
   1  -3   9   78.44    3.68
  -1  -3  -9   83.33    3.69
  -1  -3 -10   11.40    2.02
  -1   3 -10   10.74    2.10
  -1   3 -10   10.38    2.25
  -1  -3 -10    9.52    1.85
   1  -3  10   11.08    2.08
  -1  -3 -11    6.48    1.83
  -1   3 -11    5.87    2.01
  -1  -3 -11    4.65    1.79
  -1   3 -11    6.21    1.76
   1  -3  11    3.10    1.73
  -1   3 -12    0.95    1.61
  -1  -3 -12    0.92    1.52
  -1  -3 -12    1.06    1.74
   1   4 -12   30.35    2.54
   1  -4 -12   26.92    2.61
  -1   4  12   36.25    2.68
  -1   4  11    1.93    1.43
   1  -4 -11    1.21    1.26
  -1  -4  11    3.60    1.67
   1  -4 -11   -0.73    1.54
   1   4 -11    2.61    1.55
   1   4 -10   77.68    3.89
   1  -4 -10   71.55    3.31
   1  -4 -10   70.52    3.11
  -1   4  10   68.11    3.16
  -1  -4  10   65.29    3.60
  -1  -4   9  158.50    4.82
   1  -4  -9  165.49    4.26
  -1   4   9  161.61    4.11
   1   4  -9  165.22    4.87
  -1  -4   8  309.59    7.97
   1  -4  -8  312.91    7.33
   1   4  -8  319.24    8.06
  -1   4   8  307.19    7.26
  -1   4   7  187.47    4.85
  -1  -4   7  181.31    5.38
   1   4  -7  189.00    5.48
   1  -4  -7  190.31    4.90
  -1   4   6    1.99    0.82
   1   4  -6    2.73    1.10
   1   4  -6    3.32    0.93
   1  -4  -6    2.28    0.87
  -1  -4   6    2.02    0.85
   1  -4  -5   50.88    1.87
  -1   4   5   55.79    1.91
   1  -4  -5   53.56    1.90
   1  -4  -4  636.42   11.52
  -1   4   4  635.52   11.62
   1  -4  -4  641.35   11.42
  -1   4   4  649.27   11.43
   1  -4  -3 2465.33   41.30
  -1   4   3 2496.01   41.05
  -1   4   3 2482.44   41.35
   1  -4  -3 2487.94   41.05
   1  -4  -2 1131.10   18.95
  -1  -4   2 1106.34   19.36
  -1   4   2 1130.35   18.97
  -1  -4   2 1080.66   19.39
  -1   4   2 1121.34   18.53
   1   4  -1  216.22    4.36
   1   4  -1  217.95    4.37
   1   4  -1  218.17    4.48
  -1  -4   1  218.66    4.44
  -1  -4   1  215.77    4.36
  -1   4  -1 1617.18   27.05
   1  -4   1 1633.53   27.21
   1  -4   1 1629.97   27.01
   1  -4   2  749.62   13.62
  -1  -4  -2  763.09   13.56
   1  -4   2  786.36   13.56
   1   4   3  454.29    9.02
  -1  -4  -3  460.54    8.48
  -1  -4  -4   43.90    1.73
   1   4   4   45.03    2.04
  -1  -4  -5  734.82   13.76
   1   4   5  766.35   14.42
  -1   4  -5  721.08   14.45
   1   4   6  858.27    7.76
  -1  -4  -6  876.23    7.96
   1   4   6  872.75    9.24
  -1   4  -6  844.66    9.44
  -1   4  -6  830.59    9.12
  -1  -4  -7   84.13    3.09
  -1  -4  -7   80.41    3.32
   1  -4   7   72.40    3.20
  -1   4  -7   72.48    3.44
   1   4   7   75.88    2.95
   1   4   7   74.77    3.38
  -1   4  -7   82.24    3.49
  -1  -4  -8   40.14    2.36
  -1   4  -8   33.32    2.62
   1   4   8   43.62    2.81
  -1  -4  -8   34.98    2.36
  -1   4  -8   39.44    2.66
   1   4   8   42.48    2.34
   1  -4   8   40.52    2.57
  -1   4  -9   29.94    2.75
   1  -4   9   29.81    2.51
  -1   4  -9   31.93    2.62
  -1  -4  -9   26.39    2.27
  -1  -4  -9   26.50    2.20
   1  -4  10   80.50    3.95
  -1   4 -10   85.94    4.37
  -1  -4 -10   83.19    3.76
  -1  -4 -10   81.22    3.84
  -1   4 -10   87.68    4.26
  -1   4 -11   77.86    4.22
  -1  -4 -11   78.62    3.92
  -1  -4 -11   78.19    3.85
   1  -4  11   79.69    4.13
  -1   4 -12   46.31    3.36
  -1  -4 -12   44.82    3.22
  -1  -4 -12   45.25    3.15
  -1   5  12    5.57    1.56
   1  -5 -11   20.63    1.92
   1  -5 -11   16.53    1.98
  -1   5  11   17.80    1.94
   1   5 -11   18.57    2.36
  -1  -5  11   20.20    2.49
   1  -5 -10    3.89    1.32
  -1  -5  10    4.56    1.66
  -1   5  10    4.25    1.37
   1  -5 -10    3.62    1.39
   1   5 -10    2.77    1.60
  -1  -5   9    0.15    1.38
   1  -5  -9    2.40    1.25
   1   5  -9    1.24    1.45
  -1   5   9    0.93    1.10
   1  -5  -9   -0.40    0.75
   1   5  -8   25.41    2.26
   1  -5  -8   25.68    1.84
  -1  -5   8   25.67    2.27
  -1   5   8   22.60    1.71
   1   5  -7   -0.13    0.41
   1  -5  -7    6.86    1.13
  -1   5   7    5.43    1.06
   1   5  -7    6.77    1.43
  -1  -5   7   -0.12    0.35
   1  -5  -6   20.44    1.31
   1   5  -6   17.06    1.60
  -1   5   6   16.27    1.19
   1  -5  -5    1.25    0.64
  -1   5   5    1.61    0.61
   1  -5  -4   50.22    1.76
   1  -5  -4   50.89    1.53
  -1   5   4   48.30    1.50
  -1   5   4   46.72    1.79
   1  -5  -3  156.48    3.46
  -1   5   3  151.95    3.47
   1  -5  -3  151.59    2.98
  -1   5   3  152.82    2.99
  -1   5   2  258.68    4.97
  -1  -5   2  238.45    5.29
  -1  -5   2  245.21    5.22
   1   5  -2  243.09    5.21
   1   5  -1  211.54    4.30
   1   5  -1  211.82    4.51
  -1  -5   1  210.23    4.31
  -1   5   1  203.29    3.69
   1   5  -1  215.65    4.43
  -1   5   0  482.24    8.43
  -1  -5   0  484.08    8.52
   1  -5   0  469.76    8.40
   1  -5   1    2.63    0.49
  -1   5  -1    2.96    0.50
   1  -5   2    0.23    0.58
   1   5   2    0.33    0.53
   1  -5   2    0.41    0.45
  -1   5  -2    0.64    0.49
  -1   5  -3  345.18    7.48
   1   5   3  369.54    7.53
   1  -5   3  371.25    7.68
  -1  -5  -3  364.99    6.86
  -1  -5  -4  242.91    5.17
   1   5   4  245.34    5.76
   1   5   5  180.94    4.99
  -1  -5  -5  177.69    4.39
  -1  -5  -6   12.62    1.32
   1   5   6    9.95    1.60
  -1   5  -6   11.26    1.61
  -1   5  -7   -0.13    1.17
   1   5   7    0.13    1.25
  -1  -5  -7   -1.60    1.27
  -1  -5  -7    0.28    0.88
  -1   5  -7    0.41    1.23
   1  -5   7    0.12    0.71
  -1   5  -8   40.97    2.77
  -1  -5  -8   38.19    2.29
  -1   5  -8   39.46    2.83
  -1  -5  -8   38.14    2.43
   1   5   8   37.80    2.66
   1  -5   8   35.27    2.47
  -1  -5  -9   11.64    1.75
   1  -5   9    8.95    1.86
   1   5   9    8.00    1.96
  -1  -5  -9   10.26    1.76
  -1   5  -9    6.85    1.88
  -1   5  -9    7.36    1.76
  -1  -5 -10    0.77    1.46
   1  -5  10   -0.17    1.57
  -1   5 -10    0.93    1.69
  -1   5 -10    1.95    1.81
  -1  -5 -10    0.28    1.34
  -1   5 -11    1.65    1.73
   1  -5  11    4.41    1.90
  -1  -5 -11    2.48    1.62
  -1  -5 -11    1.40    1.46
  -1   5 -11    1.28    2.06
  -1   5 -12    0.98    1.56
  -1   6  11   11.26    2.36
  -1  -6  11    9.14    2.05
   1  -6 -11    8.87    1.64
  -1   6  11   12.32    1.72
   1  -6 -11    7.15    1.50
   1   6 -11   10.01    2.11
   1  -6 -10    5.10    1.35
  -1  -6  10    3.13    1.56
   1   6 -10    3.38    1.62
  -1   6  10    3.05    1.25
  -1   6  10    5.37    1.99
   1  -6 -10    0.95    1.24
   1  -6  -9   52.98    2.57
   1  -6  -9   43.60    2.37
  -1   6   9   52.10    2.48
   1   6  -9   49.41    3.06
  -1  -6   9   45.79    3.09
   1   6  -8  410.56    9.89
  -1  -6   8  413.85    9.90
   1  -6  -8  430.48    8.87
  -1   6   8  403.85    8.68
   1  -6  -7  140.31    3.64
  -1   6   7  135.54    3.54
   1   6  -7  131.90    4.49
   1  -6  -6    1.04    0.74
  -1   6   6    1.90    0.77
  -1   6   5  560.48   10.24
   1  -6  -5  556.90   10.24
  -1   6   5  572.03   10.85
   1  -6  -4  395.47    7.18
  -1   6   4  397.83    7.85
  -1   6   4  394.92    7.17
   1   6  -3 1193.06   20.78
   1  -6  -3 1210.32   20.30
  -1  -6   3 1147.50   20.89
  -1   6   3 1203.17   20.30
  -1   6   3 1147.36   19.39
  -1  -6   2  275.43    5.99
   1   6  -2  277.84    5.80
  -1  -6   2  277.81    5.83
  -1   6   2  281.01    5.64
  -1  -6   1  409.17    7.62
  -1   6   1  397.92    7.67
   1   6  -1  405.12    7.61
  -1   6   1  403.76    6.92
   1   6  -1  406.18    7.92
   1   6  -1  399.53    7.80
   1  -6   0 1638.96   27.43
  -1  -6   0 1643.95   27.55
  -1   6   0 1645.80   27.45
   1  -6   1 3165.45   52.51
  -1   6  -1 3159.61   52.55
   1   6   2  307.17    6.42
  -1   6  -2  306.12    6.36
   1  -6   2  300.86    6.53
  -1  -6  -3  164.63    3.56
   1   6   3  174.12    4.34
   1  -6   3  168.18    4.48
  -1   6  -3  165.04    4.31
   1  -6   4   63.56    2.66
  -1  -6  -4   64.78    2.02
  -1   6  -4   57.35    2.50
   1   6   4   65.57    2.53
  -1  -6  -5  470.21    9.18
  -1  -6  -6   12.71    1.40
  -1  -6  -6  967.60    8.04
  -1  -6  -7  222.34    5.59
  -1   6  -7  220.64    6.52
  -1  -6  -7  225.53    6.11
   1   6   7  220.92    6.36
  -1   6  -8   30.42    2.50
  -1   6  -8   24.97    2.39
  -1  -6  -8   31.00    2.24
   1   6   8   29.01    2.46
   1  -6   8   30.54    2.34
  -1  -6  -8   29.41    1.99
  -1   6  -9   20.56    2.44
  -1  -6  -9   22.98    2.20
  -1   6  -9   24.62    2.54
   1  -6   9   23.80    2.43
  -1  -6  -9   22.41    2.03
   1   6   9   23.60    2.57
  -1   6 -10  140.17    5.61
  -1   6 -10  160.22    6.05
   1  -6  10  146.33    5.58
  -1  -6 -10  147.26    4.99
  -1  -6 -10  149.76    5.31
   1   6  10  147.25    5.75
  -1  -6 -11  138.58    5.25
  -1  -6 -11  142.36    5.08
  -1  -7  11   17.98    2.36
   1  -7 -11   18.22    1.97
   1   7 -11   16.31    2.45
  -1   7  11   15.51    1.82
   1  -7 -11   17.87    1.96
   1  -7 -10   31.77    2.22
   1   7 -10   27.13    2.66
  -1  -7  10   30.78    2.69
  -1   7  10   32.27    2.94
  -1   7  10   32.30    2.13
   1  -7 -10   36.46    2.31
   1  -7  -9    4.18    1.24
   1  -7  -9    5.32    1.33
   1   7  -9    7.12    1.91
  -1   7   9    6.43    1.19
  -1  -7   9    5.19    1.59
   1   7  -9    3.94    1.66
   1  -7  -8    5.75    1.22
   1   7  -8    7.77    1.84
  -1   7   8    6.61    1.25
   1   7  -8   10.71    2.20
   1   7  -7  127.09    4.76
   1  -7  -7  134.22    3.65
  -1   7   7  125.82    3.56
  -1   7   6  202.69    4.50
   1  -7  -6  200.47    4.52
  -1   7   5  269.04    6.06
  -1  -7   5  251.25    6.72
  -1   7   5  264.55    5.24
   1  -7  -5  270.82    5.28
  -1  -7   4   13.57    1.47
  -1   7   4   12.16    1.07
  -1   7   4   14.04    0.65
   1   7  -4   12.37    1.26
   1  -7  -4   15.17    0.68
   1   7  -3   58.54    2.29
  -1   7   3   61.31    2.08
  -1  -7   3   54.09    2.41
  -1  -7   2  463.64    9.29
  -1   7   2  462.56    8.85
   1   7  -2  461.86    8.95
  -1   7   1  413.34    7.18
  -1  -7   1  424.87    7.96
   1   7  -1  424.65    7.94
  -1   7   1  420.75    8.10
   1   7  -1  410.05    8.20
  -1  -7   0  165.44    3.58
  -1   7   0  170.97    3.52
   1  -7   0  169.98    3.50
   1  -7   1   77.14    2.26
  -1   7  -1   80.02    2.31
   1  -7   2   85.06    2.81
   1   7   2   79.18    2.64
  -1   7  -2   83.05    2.58
  -1   7  -3  166.02    4.35
   1   7   3  168.77    4.33
  -1  -7  -3  161.93    3.47
   1  -7   3  162.21    4.48
  -1  -7  -4  311.17    6.14
   1  -7   4  305.77    7.30
   1   7   4  314.25    7.08
  -1   7  -4  301.97    7.14
   1   7   5  104.83    3.59
  -1  -7  -5   98.80    2.83
   1  -7   5   96.88    3.71
  -1   7  -5   90.27    3.54
   1  -7   5  100.14    3.59
  -1  -7  -6   27.58    1.98
  -1  -7  -6   32.76    1.76
  -1  -7  -7    6.85    1.33
  -1   7  -7    6.75    1.58
   1   7   7    3.96    1.39
  -1  -7  -7    6.04    1.03
  -1   7  -8   59.86    3.41
  -1  -7  -8   58.37    2.65
   1   7   8   62.04    3.34
  -1  -7  -8   64.07    3.12
  -1   7  -9  147.55    5.57
   1   7   9  148.68    5.57
  -1  -7  -9  143.52    5.05
  -1  -7  -9  148.92    4.69
   1  -7   9  149.09    5.46
  -1   7  -9  141.78    5.62
   1  -7  10   15.89    2.19
  -1  -7 -10   15.65    1.91
  -1   7 -10   15.89    2.54
   1   7  10   13.06    2.36
  -1   7 -10   17.76    2.52
  -1  -7 -10   17.53    2.13
  -1  -7 -11    6.50    1.85
   1  -8 -11    2.86    1.42
  -1  -8  11    4.41    1.93
   1  -8 -10   36.95    2.27
   1  -8 -10   43.56    2.54
  -1  -8  10   41.02    2.97
   1   8 -10   34.38    2.94
  -1   8  10   45.55    3.37
   1   8  -9   30.65    2.73
   1   8  -9   35.10    2.81
   1  -8  -9   31.83    2.19
   1  -8  -9   34.98    2.04
  -1   8   9   36.80    2.01
  -1   8   9   33.01    2.88
   1  -8  -8  162.40    3.52
  -1   8   8  156.90    3.39
   1   8  -8  162.04    5.18
   1  -8  -7   51.13    2.03
  -1   8   7   50.61    1.99
  -1  -8   6   16.22    1.95
  -1   8   6   16.67    1.49
   1  -8  -6   17.34    1.07
  -1   8   6   16.25    1.03
  -1   8   5   41.88    1.32
  -1  -8   5   37.48    2.43
   1  -8  -5   43.02    1.33
  -1   8   5   41.47    1.99
   1   8  -5   43.26    2.37
  -1  -8   5   38.32    2.17
   1   8  -4  100.46    3.34
  -1  -8   4   97.89    3.47
  -1   8   4   93.98    2.96
   1   8  -3 1164.16   21.14
  -1  -8   3 1191.01   21.49
  -1   8   3 1196.97   20.91
  -1   8   2  240.87    5.37
   1   8  -2  243.36    5.40
  -1  -8   1    5.93    0.77
   1   8  -1    6.40    0.79
   1   8  -1    5.32    0.90
  -1   8   1    7.43    0.44
  -1  -8   0  512.92    9.34
  -1   8   0  511.44    9.23
   1  -8   0  516.57    9.23
  -1   8  -1 1783.66   30.36
  -1  -8  -1 1781.63   29.84
   1  -8   1 1797.62   30.33
   1   8   2  197.31    4.89
  -1   8  -2  206.03    4.78
  -1  -8  -3  294.39    5.58
   1   8   3  295.37    6.68
   1  -8   3  296.05    6.89
  -1   8  -3  289.49    6.63
   1  -8   4    1.86    1.21
   1   8   4    1.64    1.02
  -1  -8  -4    0.36    0.53
  -1   8  -4    0.09    0.93
   1  -8   5  346.43    6.20
  -1   8  -5  337.72    5.89
   1   8   5  332.22    5.64
   1  -8   5  338.53    5.81
  -1  -8  -5  336.74    4.01
  -1  -8  -6  571.10   10.94
   1  -8   6  562.35   12.13
  -1  -8  -6  578.20   11.98
  -1   8  -6  548.68   12.25
   1  -8   6  589.08   12.61
   1   8   7    0.42    1.30
  -1  -8  -7    0.71    0.82
   1  -8   7    1.21    1.43
  -1  -8  -7    0.86    1.09
   1   8   8   47.39    3.00
  -1   8  -8   45.16    3.07
  -1  -8  -8   42.95    2.68
   1  -8   8   40.30    3.05
  -1  -8  -8   44.65    2.27
  -1  -8  -9   18.73    2.06
  -1   8  -9   14.92    2.40
   1   8   9   17.77    2.38
  -1  -8  -9   16.63    1.75
  -1  -8 -10   13.60    2.04
  -1  -8 -10   14.93    1.76
   1  -8  10   20.41    2.45
  -1   8 -10   17.65    2.49
  -1   8 -10   16.24    2.62
   1   8  10   14.26    2.49
  -1  -8 -11   27.08    2.54
   1   9 -10   11.64    2.30
   1   9 -10    8.67    2.03
   1  -9 -10    9.83    1.46
   1  -9 -10   11.73    1.68
  -1   9  10   10.08    2.17
   1  -9  -9    8.80    1.49
   1   9  -9    9.66    2.04
  -1   9   9    8.10    1.95
   1  -9  -9    8.07    1.21
   1   9  -8    5.64    1.72
   1  -9  -8    3.04    1.28
   1  -9  -8    6.99    1.15
  -1  -9   7   28.43    2.35
  -1  -9   7   24.61    2.41
   1  -9  -7   27.73    1.35
   1   9  -6  118.46    4.35
  -1   9   6  117.71    3.83
   1  -9  -6  123.80    2.86
  -1  -9   6  124.56    4.40
  -1  -9   6  113.73    4.42
  -1   9   5   35.72    1.95
   1   9  -5   32.22    2.13
  -1  -9   5   37.09    2.24
  -1  -9   4   60.51    2.78
   1   9  -4   66.72    2.71
  -1   9   4   67.35    2.49
   1   9  -3    2.49    0.94
  -1   9   3    1.11    0.85
  -1  -9   3    1.48    1.12
   1   9  -2   55.05    2.13
  -1   9   2   54.32    2.15
   1   9  -1   63.55    2.47
  -1   9   1   66.72    1.56
  -1   9   1   70.27    2.47
  -1  -9   1   69.09    2.20
   1   9  -1   67.93    2.17
   1  -9   0  368.70    6.96
  -1  -9   0  375.16    7.09
  -1   9   0  368.12    6.97
  -1  -9  -1    5.67    0.59
   1  -9   1    4.95    0.78
  -1   9  -1    4.64    0.80
  -1  -9  -2    5.43    0.50
   1   9   2    3.40    0.92
  -1   9  -2    4.52    0.87
   1  -9   3  186.39    5.14
  -1  -9  -3  186.11    3.77
   1   9   3  190.61    4.97
  -1   9  -3  187.88    4.89
   1  -9   4  182.26    5.31
  -1  -9  -4  183.71    3.90
  -1   9  -4  182.89    5.10
   1   9   4  186.77    5.07
  -1   9  -5   70.90    3.14
  -1  -9  -5   67.73    2.99
   1  -9   5   68.94    3.11
   1   9   5   73.83    3.10
  -1  -9  -5   73.97    2.23
   1  -9   5   73.84    3.40
   1  -9   6   56.12    3.14
  -1  -9  -6   60.35    2.19
   1   9   6   57.81    2.94
   1  -9   6   64.16    3.12
  -1  -9  -6   59.26    2.91
  -1   9  -6   57.45    3.12
   1   9   7    3.75    1.49
   1  -9   7    1.98    1.28
   1  -9   7    4.38    1.59
  -1   9  -7    4.32    1.56
  -1  -9  -7    3.09    0.89
  -1  -9  -7    4.07    1.36
  -1  -9  -8   80.49    2.97
  -1   9  -8   78.89    4.06
   1  -9   8   82.28    4.07
  -1  -9  -8   80.28    3.63
   1   9   8   85.27    4.07
  -1   9  -9   28.85    2.87
   1   9   9   32.30    2.93
   1  -9   9   31.71    3.09
  -1  -9  -9   30.58    2.03
  -1  -9  -9   28.81    2.46
  -1  -9 -10    8.90    1.92
  -1  -9 -10    8.19    1.49
   1   9  10   12.50    2.39
  -1   9 -10    7.65    2.19
   1  -9  10    9.56    2.24
  -1   9 -10    9.66    2.30
  -1  -9 -11   -0.52    1.62
   1 -10 -10    5.36    1.47
  -1  10  10    3.74    2.06
   1  10 -10    4.01    2.00
   1 -10  -9   15.93    1.75
  -1  10   9   15.26    2.34
   1 -10  -9   15.71    1.35
   1  10  -9   19.79    2.47
   1  10  -8  184.86    6.20
  -1 -10   8  199.62    6.39
  -1  10   8  187.19    6.37
   1 -10  -8  190.66    4.50
   1 -10  -8  203.90    5.58
  -1 -10   8  197.74    6.58
  -1 -10   7   63.31    3.56
  -1  10   7   64.02    2.87
   1  10  -7   68.60    3.37
  -1 -10   7   62.90    3.35
   1 -10  -7   66.12    1.92
  -1 -10   6    5.01    1.57
  -1 -10   6    4.68    1.63
  -1  10   6    5.53    1.31
   1  10  -6    5.11    1.53
   1 -10  -6    3.53    0.49
  -1  10   5  202.30    5.20
  -1 -10   5  194.61    5.80
   1  10  -5  194.44    5.58
  -1 -10   5  192.30    5.58
  -1 -10   4  127.68    4.33
  -1  10   4  134.58    3.84
   1  10  -4  125.90    4.03
  -1 -10   3  336.86    7.84
  -1  10   3  351.93    7.46
   1  10  -3  330.93    7.46
  -1  10   2   82.42    2.82
   1  10  -2   79.96    2.71
  -1  10   1   44.50    1.21
  -1  10   1   47.60    2.09
   1  10  -1   42.84    1.77
  -1  10   0  183.87    3.94
  -1 -10   0  183.68    4.06
   1 -10   0  179.96    3.93
  -1  10  -1  419.98    8.24
  -1 -10  -1  419.26    7.71
  -1  10  -2    7.95    1.04
   1  10   2    8.91    1.17
  -1 -10  -2   10.50    0.63
   1 -10   3   21.80    1.76
   1  10   3   20.64    1.57
  -1  10  -3   22.70    1.61
  -1 -10  -3   20.12    0.85
   1  10   4   29.06    1.96
  -1 -10  -4   27.43    1.06
   1 -10   4   27.90    2.13
  -1  10  -4   28.78    1.96
   1  10   5  127.48    4.23
  -1  10  -5  113.04    4.21
  -1 -10  -5  125.71    4.23
   1 -10   5  119.60    4.44
   1 -10   5  124.91    4.24
  -1 -10  -5  121.37    2.98
   1 -10   6  303.05    7.82
  -1 -10  -6  311.14    7.72
  -1 -10  -6  297.68    6.25
   1  10   6  307.26    7.73
   1 -10   6  310.88    8.13
  -1  10  -6  295.59    7.87
  -1 -10  -7   60.96    2.28
  -1 -10  -7   60.19    3.06
   1 -10   7   54.75    3.07
   1  10   7   50.62    3.05
   1 -10   7   61.23    3.48
  -1  10  -7   56.47    3.27
   1 -10   8   11.36    2.15
  -1 -10  -8   12.56    1.80
   1 -10   8   13.23    2.00
  -1  10  -8   13.64    2.26
   1  10   8   12.82    2.18
  -1 -10  -8   14.40    1.38
  -1  10  -8   12.85    2.02
   1  10   9    1.11    1.84
  -1  10  -9    4.01    1.93
  -1 -10  -9    4.82    1.59
   1 -10   9    3.55    2.01
  -1 -10  -9    2.07    1.13
  -1 -10 -10   79.80    3.97
  -1  10 -10   75.43    4.36
   1 -10  10   75.96    4.35
   1  10  10   77.47    4.32
  -1 -10 -11   68.88    3.75
   1  11 -10   35.00    3.29
   1 -11 -10   35.23    2.47
  -1  11  10   30.63    3.22
  -1  11   9   -1.35    1.73
  -1 -11   9   -0.73    1.68
   1 -11  -9    0.97    0.77
   1  11  -9   -0.74    1.81
   1  11  -9   -0.40    1.71
  -1 -11   9    1.21    1.69
   1 -11  -9   -0.37    1.15
   1  11  -8    2.50    1.62
   1 -11  -8    0.93    1.27
   1 -11  -8    2.08    0.70
  -1  11   8    1.57    1.74
  -1 -11   8    3.86    1.93
  -1 -11   8    0.82    1.60
   1 -11  -7  108.77    3.89
  -1 -11   7  109.89    4.66
  -1  11   7  114.05    4.03
   1  11  -7  111.70    4.50
  -1  11   6  215.14    5.16
   1  11  -6  204.99    5.61
  -1 -11   6  214.09    5.72
  -1 -11   6  209.64    5.90
  -1  11   5  128.82    4.08
   1  11  -5  128.56    4.44
  -1 -11   5  142.18    4.78
  -1 -11   5  133.46    4.49
  -1  11   4   31.29    1.84
  -1 -11   4   30.23    2.15
   1  11  -4   28.85    1.95
   1  11  -3   46.31    2.26
  -1  11   3   46.76    2.22
   1  11  -2  270.03    6.51
   1  11  -2  276.27    6.16
  -1  11   2  266.57    6.36
  -1  11   1  495.94   10.13
  -1  11   1  485.05    8.62
   1  11  -1  505.68    9.57
   1 -11   0   34.79    1.40
  -1 -11   0   34.30    1.47
  -1  11   0   35.59    1.40
  -1 -11  -1   28.57    1.18
  -1  11  -1   27.32    1.47
  -1  11  -2   24.93    1.56
   1  11   2   25.49    1.79
  -1 -11  -2   27.54    0.99
  -1  11  -3   88.01    3.09
  -1 -11  -3   64.91    2.88
   1  11   3   76.69    3.02
  -1 -11  -3   75.27    1.81
  -1 -11  -3   77.36    1.81
   1  11   4  293.28    7.07
  -1  11  -4  283.63    7.04
  -1 -11  -4  294.38    7.11
   1 -11   4  285.47    7.36
   1 -11   4  279.22    6.93
  -1 -11  -4  271.26    5.25
  -1 -11  -5   92.47    2.37
   1  11   5   94.46    3.70
  -1  11  -5   98.51    3.81
   1 -11   5   92.78    3.67
   1 -11   5   91.80    3.99
  -1 -11  -5   98.53    3.75
   1  11   6   29.09    2.30
   1 -11   6   28.53    2.29
  -1 -11  -6   29.68    2.29
  -1 -11  -6   25.30    1.31
   1 -11   6   22.44    2.31
  -1  11  -6   26.19    2.35
   1 -11   7   -1.05    1.45
  -1 -11  -7    0.28    1.31
   1 -11   7    0.67    1.51
  -1  11  -7   -0.47    1.54
  -1 -11  -7    0.54    0.70
  -1 -11  -8   56.32    3.19
   1  11   8   57.51    3.53
   1 -11   8   64.00    3.49
   1 -11   8   57.54    3.64
  -1  11  -8   57.38    3.54
  -1 -11  -8   63.07    2.37
  -1  11  -9   87.91    4.52
   1 -11   9   95.56    4.51
  -1 -11  -9   91.56    4.16
  -1  11  -9  100.15    4.89
   1  11   9   93.83    4.57
   1 -11   9   87.70    4.63
  -1 -11  -9   92.30    3.17
  -1 -11 -10   32.55    2.76
  -1 -11 -11    1.26    1.60
   1 -12 -10   15.92    1.92
  -1 -12   9    2.98    1.74
  -1 -12   9    6.79    2.01
   1  12  -9    4.38    1.94
   1  12  -9    2.64    1.69
  -1  12   9    5.34    1.92
  -1 -12   8   28.21    2.55
  -1 -12   8   25.37    2.67
   1  12  -8   24.64    2.52
   1 -12  -8   22.98    2.00
  -1  12   7   11.03    1.70
  -1 -12   7   13.00    2.02
   1 -12  -7   14.08    1.66
  -1 -12   7   14.27    2.17
  -1 -12   6    1.69    1.63
  -1 -12   6    1.80    1.44
   1  12  -6   -0.96    1.36
   1 -12  -6    1.50    1.19
  -1  12   6    1.88    1.30
  -1 -12   5    2.50    1.47
   1  12  -5    1.93    1.27
  -1 -12   5    0.73    1.22
  -1  12   5    2.86    1.19
  -1  12   4   48.38    2.40
   1  12  -4   52.79    2.58
  -1 -12   4   50.70    2.59
  -1 -12   4   45.63    2.73
   1  12  -3  228.81    5.76
  -1  12   3  224.38    5.78
   1  12  -2   95.52    3.08
   1  12  -2   87.31    3.37
  -1  12   2   97.19    3.38
   1  12  -2   88.81    3.60
  -1  12   1   56.22    1.40
   1  12  -1   64.23    2.21
  -1  12   1   60.35    2.58
   1 -12   0   69.01    2.12
  -1 -12   0   71.62    2.23
  -1  12   0   68.46    2.10
  -1 -12  -1  303.13    5.85
  -1  12  -1  305.79    6.39
   1  12   2  169.00    4.83
  -1  12  -2  173.35    4.47
  -1 -12  -2  161.87    3.39
  -1 -12  -3   42.88    2.37
   1  12   3   46.25    2.44
  -1  12  -3   42.85    2.23
  -1 -12  -3   34.42    1.04
  -1 -12  -3   36.43    1.05
  -1 -12  -4   17.99    1.85
   1  12   4   17.56    1.80
  -1 -12  -4   14.87    0.67
  -1  12  -4   14.28    1.69
   1 -12   4   16.39    1.70
   1 -12   5  112.85    4.14
   1 -12   5  115.63    4.46
  -1  12  -5  112.10    4.17
  -1 -12  -5  102.82    2.41
  -1 -12  -5  114.58    4.18
   1  12   5  109.86    4.10
   1 -12   6  108.53    4.27
   1  12   6  114.05    4.33
  -1  12  -6  111.08    4.35
  -1 -12  -6  105.86    2.66
  -1 -12  -6  117.16    4.32
   1 -12   6  111.14    4.57
  -1  12  -7   -0.81    1.58
   1  12   7    0.59    1.42
  -1 -12  -7    0.30    0.65
   1 -12   7    0.15    1.43
  -1 -12  -7   -1.15    1.37
   1 -12   7   -0.70    1.56
   1 -12   8    7.43    2.05
   1 -12   8    9.16    1.96
  -1 -12  -8   11.85    1.91
  -1  12  -8    7.07    2.03
   1  12   8   11.10    2.09
  -1 -12  -8    9.22    1.07
  -1 -12  -9    0.33    1.42
  -1  12  -9    1.01    1.67
   1 -12   9    3.95    1.97
  -1  12  -9    1.70    1.91
   1  12   9    1.17    1.91
   1 -12   9    2.43    1.71
  -1 -12 -10    8.88    1.95
   1 -13 -10    7.88    1.69
  -1 -13   9   -0.21    1.61
   1  13  -9    0.65    1.76
   1 -13  -9   -0.27    1.34
  -1 -13   9   -0.77    1.63
   1  13  -9   -2.71    1.76
  -1  13   9   -1.01    1.96
  -1  13   8   -0.13    1.38
   1  13  -8   -1.05    1.57
   1 -13  -8   -0.77    1.24
  -1 -13   8    0.70    1.60
  -1 -13   8   -0.58    1.62
  -1 -13   7    1.94    1.53
   1 -13  -7    3.63    1.36
  -1 -13   7    3.94    1.61
  -1  13   7    2.65    1.37
   1  13  -7    2.85    1.63
  -1 -13   6  114.37    4.71
  -1 -13   6  112.60    4.42
   1  13  -6  115.55    4.47
  -1  13   6  113.60    4.09
  -1  13   5   19.99    1.83
  -1 -13   5   17.76    2.03
  -1 -13   5   17.44    1.97
   1  13  -5   22.95    2.06
  -1  13   4   50.50    2.54
   1  13  -4   45.81    2.53
  -1 -13   4   47.96    2.59
   1  13  -3    0.85    1.07
   1  13  -3    2.78    1.45
  -1  13   3    3.70    1.26
   1  13  -2  100.63    3.79
   1  13  -2  103.54    3.34
  -1  13   2  101.28    3.64
   1  13  -2  107.30    4.12
  -1  13   1  789.87   13.71
   1  13  -1  788.78   15.88
  -1  13   1  822.28   15.62
   1  13  -1  805.42   14.73
  -1  13   0  266.58    5.47
  -1  13   0  265.92    6.71
   1 -13   0  255.93    5.45
  -1  13  -1    2.74    0.89
   1  13   1    0.65    1.21
  -1 -13  -1    1.24    0.59
   1  13   2   51.03    2.62
  -1  13  -2   51.30    2.29
  -1 -13  -2   48.98    1.44
  -1 -13  -3  304.11    5.75
   1  13   3  286.83    5.50
  -1  13  -3  288.22    5.16
  -1 -13  -4  355.11    8.60
   1 -13   4  353.21    8.37
  -1  13  -4  352.87    8.40
   1  13   4  351.12    8.50
  -1 -13  -5   54.17    3.00
   1  13   5   56.19    3.01
   1 -13   5   56.69    3.25
  -1  13  -5   52.06    2.99
   1 -13   5   58.10    3.07
   1 -13   6   18.74    2.11
  -1 -13  -6   21.72    2.13
   1 -13   6   18.18    2.23
  -1  13  -6   20.93    2.23
   1  13   6   21.47    2.08
  -1 -13  -6   14.41    0.73
  -1  13  -7    7.55    1.87
   1 -13   7    5.60    1.84
   1 -13   7    8.11    1.82
   1  13   7    6.54    1.67
  -1 -13  -7    6.23    0.68
  -1 -13  -7    8.05    1.65
   1 -13   8   62.66    3.87
   1  13   8   60.13    3.66
  -1  13  -8   62.93    3.79
  -1 -13  -8   59.79    3.37
   1 -13   8   57.71    3.49
   1  13   9    1.19    1.78
  -1  13  -9    1.10    1.98
   1 -13   9   -0.38    1.67
   1 -13   9    1.50    1.85
  -1 -13  -9    1.86    1.53
  -1  13  -9    2.67    1.81
  -1 -13 -10    6.79    1.89
   1  14  -9    3.97    1.81
  -1 -14   9    5.44    2.01
   1 -14  -9    5.25    1.59
  -1 -14   9    3.35    1.81
  -1 -14   8   18.41    2.48
  -1  14   8   16.10    1.98
   1  14  -8   14.41    2.26
  -1 -14   8   17.24    2.24
   1 -14  -8   21.67    2.11
  -1 -14   7   -1.65    1.71
  -1 -14   7    0.16    1.41
  -1  14   7   -0.27    1.37
   1  14  -7    0.16    1.52
   1  14  -6    3.06    1.60
  -1 -14   6    1.18    1.53
  -1  14   6    2.73    1.46
  -1 -14   6    2.20    1.54
  -1  14   5   89.78    3.61
   1  14  -5   95.82    3.88
  -1 -14   5   95.73    3.90
  -1  14   4   55.58    2.76
  -1 -14   4   50.49    2.72
   1  14  -4   55.20    2.79
   1  14  -3   -1.13    1.62
  -1 -14   3   -0.10    0.43
   1  14  -3   -0.49    1.11
  -1  14   3   -1.45    1.31
   1  14  -2   11.16    1.65
   1  14  -2   10.31    1.88
   1  14  -2   11.81    1.37
  -1  14   2   13.46    1.72
  -1  14   1   60.39    1.68
   1  14  -1   62.67    3.35
  -1  14   1   67.24    3.06
   1  14  -1   61.93    2.38
   1 -14   0   24.64    1.37
  -1  14   0   25.93    2.02
   1  14   0   27.95    2.36
  -1  14   0   24.59    1.35
   1  14   1    8.57    1.51
  -1 -14  -1    9.21    0.87
  -1  14  -1   10.41    1.16
   1  14   2   28.99    2.16
  -1  14  -2   28.39    1.81
  -1  14  -3   21.59    1.80
   1  14   3   19.32    1.97
   1  14   4    1.41    1.31
   1 -14   4    1.97    1.35
  -1 -14  -4    2.65    1.47
  -1  14  -4    1.08    1.35
  -1 -14  -5    0.84    1.35
   1 -14   5    0.40    1.30
  -1  14  -5    1.23    1.35
   1  14   5    0.14    1.30
   1 -14   6   20.08    2.08
   1 -14   6   19.04    2.32
  -1 -14  -6   20.20    2.16
   1  14   6   20.11    2.12
  -1  14  -6   18.85    2.25
  -1 -14  -7   65.45    3.48
  -1  14  -7   64.41    3.64
   1  14   7   66.52    3.49
   1 -14   7   63.12    3.52
   1 -14   7   63.00    3.76
  -1 -14  -8   14.89    2.15
  -1  14  -8   11.84    2.17
   1 -14   8   12.35    2.11
   1 -14   8   13.26    2.27
   1  14   8   13.89    2.33
  -1 -14  -9    9.62    1.94
  -1 -14 -10   23.36    2.54
  -1 -15   8    0.21    1.72
   1  15  -8   -2.41    1.84
  -1 -15   8   -1.11    1.63
  -1  15   8    0.15    1.36
  -1  15   7   58.07    3.13
   1  15  -7   61.58    3.55
  -1 -15   7   54.38    3.35
  -1 -15   7   52.20    3.48
   1  15  -6  168.73    5.66
  -1  15   6  164.53    5.30
  -1 -15   6  163.08    5.59
  -1  15   5   60.27    3.05
  -1 -15   5   62.79    3.24
   1  15  -5   59.28    3.13
  -1  15   4    3.24    1.35
   1  15  -4    0.71    1.21
  -1 -15   4    1.58    1.32
   1  15  -3   13.26    1.54
   1  15  -3    7.54    1.90
   1  15  -3    9.84    1.67
  -1  15   3   12.76    1.66
  -1 -15   3    7.23    1.25
   1  15  -2   37.54    2.81
  -1  15   2   39.32    2.44
   1  15  -2   36.02    2.55
   1  15  -2   42.23    2.18
   1  15  -1  563.77   12.61
   1  15  -1  578.21   11.21
  -1  15   1  587.55   12.33
  -1  15   0    8.71    0.97
  -1  15   0    7.03    1.54
   1  15   0    6.76    1.69
   1  15   1    1.26    1.19
  -1  15  -1    1.91    0.88
  -1 -15  -1    3.95    0.73
  -1 -15  -2   10.69    0.65
  -1  15  -2   13.88    1.44
   1  15   2   10.61    1.70
  -1  15  -3   16.32    1.65
   1  15   3   11.79    1.68
   1 -15   3   11.17    1.47
   1 -15   4  151.85    4.95
   1  15   4  150.78    5.09
  -1  15  -4  160.72    5.08
  -1 -15  -5   19.42    2.09
   1 -15   5   20.99    2.08
  -1  15  -5   25.41    2.26
   1  15   5   21.90    2.17
  -1 -15  -6   25.14    2.35
   1  15   6   24.72    2.34
  -1  15  -6   25.08    2.42
   1 -15   6   21.14    2.30
  -1 -15  -7   25.64    2.50
   1 -15   7   27.57    2.56
   1 -15   7   26.38    2.80
  -1  15  -7   22.10    2.53
   1  15   7   25.27    2.47
  -1 -15  -8   28.58    2.65
   1 -15   8   34.99    3.13
   1 -15   8   31.10    2.79
  -1  15  -8   26.13    2.70
  -1 -15  -9   24.24    2.56
   1  16  -8   -0.19    1.66
  -1 -16   8    0.21    1.77
  -1 -16   8    0.19    1.55
  -1  16   8   -0.62    1.50
  -1  16   7    1.48    1.46
  -1 -16   7   -0.69    1.62
   1  16  -7   -0.69    1.59
   1  16  -6    0.31    1.44
  -1  16   6    1.80    1.50
  -1 -16   6    1.88    1.50
  -1  16   5    0.13    1.31
   1  16  -5    0.83    1.31
  -1 -16   5   -0.70    1.33
  -1  16   4   12.76    1.74
   1  16  -4   15.09    1.77
  -1 -16   4   11.48    1.67
   1  16  -3   24.08    2.21
  -1 -16   3   24.14    1.97
   1  16  -3   23.45    2.52
  -1  16   3   21.42    2.08
   1  16  -3   22.04    1.88
   1  16  -2   11.23    1.76
   1  16  -2   12.92    1.47
  -1  16   2   12.70    1.79
   1  16  -2   11.86    2.15
   1  16  -1   25.77    2.57
  -1  16   1   29.89    2.39
  -1  16   0   10.32    1.04
   1  16   0   12.52    2.02
  -1  16   0   13.20    1.92
   1  16   1   45.37    2.78
  -1  16  -1   44.92    2.78
  -1  16  -1   45.21    2.05
  -1 -16  -1   45.45    1.66
   1  16   2   69.80    3.31
  -1  16  -2   68.54    2.79
   1 -16   3    7.65    1.48
  -1  16  -3    6.00    1.35
   1  16   3    7.58    1.71
   1 -16   4    9.71    1.69
   1  16   4    8.23    1.81
  -1  16  -4    6.33    1.56
   1 -16   5   12.61    1.83
  -1  16  -5   15.75    1.98
   1  16   5   19.07    2.18
  -1  16  -6   11.20    1.93
   1 -16   6   10.88    1.85
  -1 -16  -6   11.04    1.95
   1  16   6   12.76    1.99
  -1 -16  -7    1.88    1.61
  -1  16  -7    1.44    1.68
   1  16   7    1.37    1.60
   1 -16   7    1.72    1.52
   1  16   8   -0.18    1.65
  -1  16  -8   -0.60    1.72
  -1 -16  -8    1.97    1.62
   1 -16   8    0.19    1.54
  -1 -16  -9   -1.50    1.67
   1  17  -8    2.75    1.73
  -1  17   8    0.65    1.47
  -1 -17   8    3.50    1.86
  -1 -17   7    5.15    1.76
  -1  17   7    4.96    1.66
   1  17  -7    1.60    1.61
  -1  17   6   81.21    3.79
   1  17  -6   87.13    4.05
  -1 -17   6   86.39    4.07
   1  17  -5   16.66    2.01
  -1 -17   5   19.36    2.12
  -1  17   5   16.32    1.98
  -1  17   4   38.14    2.62
   1  17  -4   42.91    2.61
  -1 -17   4   41.22    2.65
   1  17  -4   43.27    2.84
   1  17  -3    0.51    1.73
   1  17  -3   -0.60    1.39
   1  17  -3   -0.66    1.16
  -1 -17   3   -1.26    1.40
  -1  17   3   -0.28    1.46
   1  17  -2   12.15    2.19
   1  17  -2   15.43    1.51
   1  17  -2   13.88    1.92
  -1  17   2   13.93    1.89
  -1  17   1  480.45   10.92
   1  17  -1  457.95   11.18
  -1  17   0   65.70    3.40
  -1  17   0   69.12    2.26
   1  17   1   -1.44    1.43
  -1  17  -1   -0.83    0.90
  -1 -17  -1   -0.49    0.65
   1  17   2   20.72    2.13
  -1  17  -2   18.42    1.60
   1 -17   3   95.21    3.71
   1  17   3  104.63    4.25
  -1  17  -3  100.04    3.77
   1  17   4  166.68    5.65
   1 -17   4  170.14    5.32
  -1  17  -4  166.72    5.32
   1 -17   5    5.75    1.59
   1  17   5    6.20    1.68
  -1  17  -5    7.87    1.71
   1 -17   6    7.20    1.80
  -1  17  -6    8.50    1.89
   1  17   6    5.22    1.69
   1  17   7   17.06    2.26
  -1 -17  -7   23.25    2.50
   1 -17   7   15.62    2.23
  -1  17  -7   20.76    2.46
   1  17   8   35.98    2.95
  -1 -17  -8   33.45    2.85
  -1  18   8    2.87    1.64
  -1 -18   7   -0.55    1.67
   1  18  -7   -1.27    1.63
  -1  18   7    1.14    1.57
   1  18  -6   -1.15    1.51
  -1  18   6    0.31    1.49
  -1 -18   6    0.66    1.62
  -1  18   5   14.32    2.03
  -1 -18   5   16.40    2.02
   1  18  -5   12.50    2.02
   1  18  -5   14.08    1.95
   1  18  -4   10.09    1.92
  -1 -18   4    8.45    1.65
  -1  18   4    8.96    1.75
   1  18  -4    8.30    1.61
   1  18  -3   -0.46    1.21
  -1 -18   3   -0.71    1.25
  -1  18   3   -0.88    1.45
   1  18  -3    0.80    1.47
   1  18  -3   -0.18    1.63
   1  18  -2   -0.35    1.76
   1  18  -2   -1.87    1.44
  -1 -18   2    0.10    0.52
   1  18  -2    1.91    1.15
  -1  18   2   -0.15    1.35
  -1  18   1   24.09    2.40
   1  18  -1   16.88    2.43
  -1  18   0    1.17    0.76
   1  18   0   -0.84    1.68
  -1  18   0    1.37    1.51
  -1  18  -1    0.63    1.42
  -1  18  -1    1.54    0.89
   1  18   1    1.84    1.45
  -1 -18  -1    2.26    0.66
   1 -18   2   -0.10    0.36
   1  18   2    1.22    1.46
  -1  18  -2    0.10    0.99
  -1  18  -2   -0.98    1.59
   1 -18   3   -0.12    1.21
   1  18   3    0.62    1.45
  -1  18  -4    1.07    1.36
   1  18   4   -0.65    1.45
   1 -18   4    0.53    1.31
   1 -18   5   -0.74    1.47
  -1  18  -5   -0.15    1.48
   1  18   5   -1.34    1.55
   1 -18   6    1.32    1.48
  -1  18  -6    2.41    1.59
   1  18   6    1.76    1.68
   1 -18   7   15.15    2.25
   1  18   7   17.60    2.32
  -1  18  -7   18.29    2.40
  -1  19   8    1.06    1.56
  -1 -19   7   17.03    2.40
  -1  19   7   20.29    2.31
   1  19  -7   15.27    2.29
   1  19  -6   47.69    3.37
  -1 -19   6   48.27    3.25
   1  19  -6   44.41    3.07
  -1  19   6   38.03    2.86
  -1  19   5   29.73    2.61
  -1 -19   5   32.45    2.63
   1  19  -5   31.68    2.58
   1  19  -5   23.77    2.58
   1  19  -4    7.89    1.87
  -1  19   4    4.22    1.64
   1  19  -4    3.75    1.51
  -1 -19   4    1.80    1.42
  -1  19   3   13.31    1.94
   1  19  -3   12.45    1.66
   1  19  -3   10.70    2.02
   1  19  -3   10.36    2.21
  -1 -19   3   11.22    1.70
  -1  19   2   30.23    2.54
   1  19  -2   32.61    2.04
   1  19  -2   32.58    2.69
   1  19  -2   30.85    2.89
  -1 -19   2   23.70    1.88
   1  19  -1  177.43    6.29
  -1  19   1  173.10    5.88
   1  19   0    0.16    1.43
  -1  19   0   -0.16    1.48
   1  19   0   -0.54    1.74
  -1  19  -1    3.07    0.99
   1  19   1    3.92    1.61
   1  19   1    2.34    1.81
  -1 -19  -1    1.73    0.60
  -1  19  -1    2.35    1.65
   1 -19   2    0.80    0.84
  -1  19  -2    3.29    1.69
  -1  19  -2    2.58    1.17
   1  19   2    1.30    1.46
   1 -19   3   20.87    2.00
  -1  19  -3   24.37    2.00
   1  19   3   21.35    2.30
   1  19   4   63.27    3.60
  -1  19  -4   73.98    3.48
   1 -19   4   66.23    3.32
   1  19   5   11.24    2.03
  -1  19  -5   14.69    2.05
   1 -19   5   14.56    2.02
   1  19   6    8.27    1.89
  -1  19  -6   11.74    2.05
   1 -19   6    8.18    1.93
   1 -19   7   -0.19    1.73
  -1 -20   7    1.53    1.85
  -1  20   7    1.61    1.60
  -1  20   6    3.11    1.62
  -1 -20   6    1.75    1.68
   1  20  -6    2.24    1.56
   1  20  -5    0.16    1.39
   1  20  -5   -0.58    1.79
  -1  20   5    0.34    1.53
  -1 -20   5    1.27    1.60
  -1 -20   4   -0.43    1.44
   1  20  -4   -1.24    1.39
  -1  20   4   -0.50    1.49
   1  20  -4    0.19    1.65
   1  20  -3    2.84    1.24
  -1 -20   3    2.12    1.34
  -1  20   3    2.66    1.56
   1  20  -3    3.78    1.71
  -1 -20   2    1.50    1.19
   1  20  -2    2.28    1.63
   1  20  -2    2.54    1.85
  -1  20   2    0.84    1.59
   1  20  -1    1.91    1.80
  -1  20   1    2.54    1.75
   1  20   0    0.86    1.57
  -1  20   0    0.17    1.52
   1  20   0    0.76    1.82
   1  20   1    6.04    1.83
  -1  20  -1    6.21    1.80
   1  20   1    4.39    1.91
  -1  20  -1    7.99    1.20
  -1  20  -2    3.32    1.12
   1 -20   2    2.04    1.05
   1  20   2    4.47    1.63
  -1  20  -2    2.39    1.64
   1 -20   3    0.24    1.21
  -1  20  -3    0.97    1.18
   1  20   3    1.04    1.59
   1  20   4   -0.54    1.59
   1 -20   4    0.14    1.37
  -1  20  -4   -0.56    1.33
   1 -20   5   -0.31    1.50
  -1  20  -5    3.19    1.66
   1  20   5    1.29    1.56
   1 -20   6    4.36    1.78
  -1  20  -6    0.18    1.55
  -1  21   6    9.29    1.96
   1  21  -6    9.22    2.02
  -1 -21   6    8.57    2.02
  -1 -21   5    1.30    1.46
   1  21  -5    0.32    1.50
  -1  21   5    0.18    1.55
   1  21  -4   -1.76    1.60
   1  21  -4   -1.40    1.53
  -1  21   4   -0.18    1.57
  -1 -21   4   -1.89    1.54
   1  21  -3    2.47    1.74
  -1  21   3    2.64    1.63
  -1 -21   3    0.51    1.31
   1  21  -3    2.29    1.29
  -1 -21   2   10.17    1.59
  -1  21   2    8.05    1.86
   1  21  -2    8.70    2.30
  -1  21   1   10.77    2.00
   1  21  -1    9.12    2.16
   1  21   0   45.99    3.42
   1  21   0   42.40    3.13
  -1  21   0   47.37    3.31
   1  21   1    1.82    1.69
  -1  21  -1    1.50    1.68
   1  21   1   -1.01    1.85
  -1  21  -1    1.03    0.98
   1 -21   2   -0.41    1.16
  -1  21  -2   -1.02    1.12
   1  21   2   -0.36    1.63
  -1  21  -2   -1.75    1.81
   1 -21   3   29.17    2.26
  -1  21  -3   32.61    2.31
   1  21   3   32.23    2.83
   1  21   4   28.66    2.70
   1 -21   4   25.72    2.32
  -1  21  -4   23.19    2.29
  -1  21  -5    7.54    1.87
   1 -21   5    7.89    1.78
  -1  21  -6    5.13    1.81
   1 -21   6    5.90    1.95
  -1 -22   5    3.63    1.65
   1  22  -5    3.56    1.57
  -1  22   4    2.97    1.67
   1  22  -4    1.42    1.39
  -1 -22   4    1.91    1.47
  -1  22   3    0.93    1.59
   1  22  -2    0.88    1.98
  -1  22   2   -0.22    1.96
  -1  22   2   -0.95    1.67
  -1  22   1   11.04    2.12
   1  22  -1   11.22    2.36
   1  22   0    0.21    1.99
   1  22   0    1.36    1.65
  -1  22   0    0.39    1.71
   1  22   1    0.19    1.63
  -1  22  -1   -0.40    1.71
   1  22   1    1.50    1.93
   1  22   2   -1.30    1.95
   2   0 -12   57.91    3.63
  -2   0  12   59.58    3.47
   2   0 -11   76.53    3.19
   2   0 -11   81.24    3.91
  -2   0  11   77.42    3.81
  -2   0  10   -2.01    1.62
   2   0 -10   -1.17    1.58
   2   0 -10   -0.10    0.51
  -2   0   9   12.31    1.67
   2   0  -9   10.48    1.62
   2   0  -8  137.71    4.56
  -2   0   8  147.22    4.67
  -2   0   7  633.25   12.70
   2   0  -7  615.59   12.56
   2   0  -6  288.29    6.67
  -2   0   6  290.71    6.73
   2   0  -5    6.22    0.88
  -2   0   5    6.36    1.02
  -2   0   5    4.83    0.86
  -2   0   4    1.91    0.73
  -2   0   4    2.73    0.72
   2   0  -4    3.07    0.68
  -2   0   3  737.27   13.62
  -2   0   3  752.29   13.61
   2   0  -3  777.58   13.65
   2   0  -3  777.17   13.64
  -2   0   2 9778.63  162.05
  -2   0   2 9999.00  161.79
  -2   0  -1  501.99    8.69
  -2   0  -2 4609.56   75.84
  -2   0  -2 4556.65   75.44
  -2   0  -3 5079.43   83.00
  -2   0  -3 4931.71   82.70
  -2   0  -4  651.18   12.53
  -2   0  -4  665.90   12.69
  -2   0  -5    0.73    0.83
  -2   0  -5    0.90    0.83
   2   0   5    1.48    0.85
   2   0   6 1033.87   19.17
  -2   0  -6  997.81   19.31
  -2   0  -6 1029.14   19.34
  -2   0  -7  337.67    8.46
   2   0   7  346.77    8.20
  -2   0  -7  344.49    8.36
  -2   0  -8  343.90    8.57
  -2   0  -8  327.15    8.59
   2   0   8  342.10    8.45
  -2   0  -9   42.49    2.81
  -2   0  -9   34.16    2.77
   2   0   9   36.42    2.60
  -2   0 -10   13.40    2.05
  -2   0 -10   10.56    1.98
  -2   0 -11   21.79    2.49
  -2   0 -11   28.75    2.68
  -2   1  12    3.51    1.70
   2   1 -12    4.11    1.88
   2  -1 -12    1.76    1.68
  -2  -1  12    3.59    1.73
  -2   1  11    3.99    1.55
   2   1 -11    5.19    1.36
   2   1 -11    3.20    1.65
  -2  -1  11    6.75    1.80
   2  -1 -11    2.97    1.20
   2  -1 -11    4.94    1.66
   2   1 -10   -0.45    1.60
  -2  -1  10   -0.75    1.54
   2  -1 -10   -1.85    1.59
  -2   1  10   -0.55    1.45
   2  -1 -10   -0.09    0.68
   2   1 -10    0.10    0.29
  -2   1   9   -0.37    1.29
  -2  -1   9    0.53    1.29
   2   1  -9    1.47    1.26
   2  -1  -9    0.38    1.23
  -2  -1   8    1.07    1.28
  -2   1   8    2.41    1.31
   2   1  -8    3.18    1.43
   2  -1  -8    4.92    1.40
  -2   1   7    6.46    1.45
  -2   1   7    3.14    1.77
   2   1  -7   10.66    1.69
  -2  -1   7    7.97    1.50
   2  -1  -7    9.22    1.55
   2   1  -7    2.15    1.59
   2   1  -6   10.18    1.34
  -2  -1   6   12.66    1.36
  -2   1   6   11.85    1.49
   2  -1  -6    8.95    1.21
  -2   1   6   11.16    1.26
   2  -1  -6    7.67    0.87
  -2   1   5    6.42    0.90
   2  -1  -5    5.87    0.60
   2  -1  -5    5.27    0.86
  -2  -1   5    5.95    0.88
   2   1  -5    6.19    0.98
  -2   1   5    4.76    0.96
  -2  -1   4   28.97    1.51
   2  -1  -4   33.68    1.49
   2  -1  -4   33.49    1.00
  -2   1   4   32.66    1.49
   2   1  -4   33.89    1.58
  -2   1   4   31.24    1.62
  -2   1   3    6.03    0.76
  -2   1   3    4.72    0.80
   2   1  -3    5.31    0.84
   2   1  -3    8.05    0.84
  -2  -1   3    6.27    0.81
   2  -1  -3    6.34    0.74
  -2   1   2  712.39   12.64
  -2   1   2  709.41   12.54
   2   1  -2  730.53   12.53
   2   1   1  115.82    2.38
  -2  -1  -2   80.97    2.38
  -2   1  -2   81.83    2.23
   2   1   2   84.91    2.17
  -2   1  -3  136.57    3.73
  -2  -1  -3  139.95    3.65
  -2   1  -3  142.03    3.59
   2   1   3  144.83    3.53
  -2   1  -4  119.83    3.48
  -2   1  -4  118.38    3.55
   2   1   4  120.36    3.44
  -2  -1  -4  113.24    3.43
   2  -1   5   25.56    1.66
  -2   1  -5   28.57    1.77
  -2  -1  -5   24.50    1.66
  -2   1  -6    4.50    1.24
   2  -1   6    7.79    1.27
  -2  -1  -6    5.84    1.35
  -2  -1  -6    7.51    1.34
  -2   1  -6    4.97    1.37
  -2  -1  -7   34.14    2.30
   2  -1   7   32.67    2.26
  -2   1  -7   32.74    2.32
  -2  -1  -7   29.93    2.35
  -2   1  -7   37.89    2.44
  -2   1  -8   34.63    2.51
   2  -1   8   34.76    2.44
  -2  -1  -8   27.84    2.40
  -2  -1  -8   33.95    2.35
  -2  -1  -9   16.89    2.07
   2  -1   9   13.44    2.01
  -2   1  -9   11.88    1.98
  -2  -1  -9   13.70    2.11
  -2   1  -9   14.68    2.18
  -2   1 -10   -1.24    1.61
  -2   1 -10    0.89    1.50
  -2  -1 -10    0.17    1.54
  -2  -1 -10    2.29    1.66
  -2   1 -11    2.55    1.69
  -2  -1 -11    1.68    1.59
  -2  -1 -11   -0.19    1.68
  -2   1 -11    2.30    1.70
  -2   2  13   17.38    2.26
   2  -2 -12   35.31    2.91
  -2  -2  12   35.34    2.89
   2   2 -12   29.30    2.82
  -2   2  12   28.78    2.63
   2   2 -11   38.66    3.00
   2   2 -11   38.95    2.36
   2  -2 -11   46.47    2.99
   2  -2 -11   41.02    2.28
  -2  -2  11   45.69    3.10
  -2   2  11   40.74    2.76
  -2   2  10    4.26    1.42
   2   2 -10    6.83    1.69
   2   2 -10    0.31    0.58
  -2  -2  10    4.01    1.59
   2  -2 -10    3.44    1.42
   2  -2  -9   25.62    2.08
   2   2  -9   24.77    2.25
  -2  -2   9   22.24    2.06
  -2   2   9   23.85    1.98
   2   2  -8  307.89    8.16
  -2   2   8  322.51    7.57
   2  -2  -8  316.67    7.52
  -2   2   8  293.92    8.07
  -2  -2   8  316.36    7.88
   2   2  -8  317.22    7.86
   2   2  -7  890.42   17.38
  -2   2   7  904.57   17.04
  -2   2   7  872.71   17.70
   2  -2  -7  908.60   17.03
  -2  -2   7  913.78   17.47
   2   2  -7  939.89   17.85
   2  -2  -6  249.27    5.82
   2  -2  -6  245.85    5.14
   2   2  -6  242.31    6.11
  -2   2   6  248.03    5.81
  -2   2   6  245.62    6.29
  -2  -2   6  257.94    6.19
   2  -2  -5   18.81    0.90
  -2   2   5   18.43    1.46
   2  -2  -5   18.83    1.21
  -2   2   5   17.38    1.19
   2   2  -4  650.62   12.58
   2  -2  -4  675.12   11.47
   2  -2  -4  686.49   12.25
  -2   2   4  654.95   12.62
  -2   2   4  676.68   12.26
   2  -2  -3 1538.66   26.06
   2   2  -3 1505.26   26.39
  -2   2   3 1576.08   26.10
   2   2  -3 1519.16   26.30
   2   2  -2 8516.00  139.07
  -2   2   2 8531.33  139.41
  -2  -2   1  214.08    3.97
   2   2  -1  218.97    4.11
  -2  -2   1  208.50    4.11
   2   2   0  243.54    4.84
  -2  -2   0  241.37    4.85
  -2   2   0  251.09    4.56
   2  -2   1 1127.82   19.13
   2   2   2  560.63   10.13
   2   2   3 3740.61   63.58
  -2  -2  -3 3914.25   63.77
  -2   2  -4  266.02    6.27
  -2  -2  -4  267.41    6.07
  -2   2  -4  271.89    6.18
   2   2   4  270.65    6.04
  -2   2  -5   16.74    1.52
   2   2   5   18.78    1.51
  -2   2  -5   17.74    1.48
  -2  -2  -5   18.60    1.42
  -2   2  -6   46.84    2.55
  -2  -2  -6   45.22    2.35
  -2   2  -6   49.26    2.57
   2   2   6   44.78    2.42
  -2  -2  -6   49.01    2.60
   2  -2   6   47.69    2.46
   2  -2   7  814.81   16.20
  -2   2  -7  824.29   16.42
  -2   2  -7  798.63   16.34
  -2  -2  -7  818.79   16.10
  -2  -2  -7  790.77   16.34
  -2   2  -8  215.58    6.55
  -2   2  -8  230.79    6.74
   2  -2   8  224.40    6.48
  -2  -2  -8  233.74    6.47
  -2  -2  -8  217.47    6.61
   2  -2   9  254.72    7.41
  -2  -2  -9  276.97    7.51
  -2  -2  -9  266.36    7.71
  -2   2  -9  266.79    7.74
   2  -2  10    8.29    1.89
  -2  -2 -10    4.54    1.70
  -2  -2 -10    5.60    1.77
  -2   2 -10    4.97    1.84
  -2   2 -10    3.85    1.85
  -2   2 -11   39.20    3.13
  -2  -2 -11   44.95    3.19
  -2   2 -11   40.84    3.13
  -2  -2 -11   42.95    3.18
  -2  -3  12    0.76    1.63
  -2   3  12    2.16    1.54
   2  -3 -12    3.62    1.66
   2   3 -12    1.57    1.80
  -2  -3  11    2.97    1.67
  -2   3  11    1.98    1.43
   2   3 -11    0.12    1.20
   2  -3 -11   -0.60    1.48
   2   3 -11   -0.36    1.56
   2  -3 -11    0.10    0.98
   2   3 -10   -2.40    1.75
  -2   3  10   -0.77    1.31
  -2  -3  10    0.16    1.55
   2  -3 -10   -1.73    1.48
   2  -3  -9   45.42    2.57
  -2   3   9   34.12    2.81
   2   3  -9   36.49    2.75
  -2   3   9   40.96    2.40
   2   3  -9   44.41    2.83
  -2  -3   9   39.81    2.72
  -2   3   8   15.06    1.64
  -2  -3   8   13.88    1.89
  -2   3   8    9.99    1.93
   2   3  -8   16.47    1.86
   2   3  -8   13.17    2.09
   2  -3  -8   14.05    1.60
  -2   3   7   25.51    2.36
   2   3  -7   33.63    2.59
  -2  -3   7   32.93    2.31
   2  -3  -7   34.21    2.04
  -2   3   7   32.04    2.00
   2   3  -6   59.22    2.67
   2  -3  -6   54.08    2.23
  -2  -3   6   60.66    2.66
   2  -3  -6   56.31    1.89
  -2   3   6   58.03    2.28
  -2   3   6   52.70    2.65
   2  -3  -5  102.81    2.93
   2   3  -5  100.90    3.31
   2  -3  -5  102.46    2.46
  -2   3   5  104.29    2.92
  -2   3   5  104.42    3.40
   2   3  -4   76.74    2.70
  -2   3   4   77.79    2.71
   2  -3  -4   82.63    2.36
   2  -3  -4   84.20    1.92
  -2   3   4   81.87    2.34
  -2   3   3  253.01    5.03
  -2   3   3  252.92    4.61
   2   3  -2    2.89    0.65
  -2   3   2    3.42    0.51
  -2  -3   1   73.37    1.89
  -2  -3   1   73.43    1.78
  -2  -3   1   69.56    2.04
   2   3  -1   71.42    1.86
  -2  -3   0   28.30    1.15
   2   3   0   27.84    1.14
   2  -3   1    0.99    0.46
  -2   3  -1    0.83    0.44
   2  -3   2   10.41    0.88
  -2  -3  -3   37.55    1.65
   2   3   3   37.73    1.62
  -2   3  -4   13.38    1.21
  -2  -3  -4   15.79    1.21
   2   3   4   14.85    1.22
  -2   3  -5    4.49    1.12
  -2   3  -5    5.71    1.13
  -2  -3  -5    4.05    0.90
   2   3   5    5.13    1.04
  -2   3  -6    8.14    1.41
  -2   3  -6    5.91    1.33
  -2  -3  -6    6.33    1.27
  -2  -3  -6    7.69    1.23
   2   3   6    6.73    1.35
   2  -3   7   26.72    2.16
  -2   3  -7   31.92    2.44
   2   3   7   28.17    2.23
  -2   3  -7   30.82    2.33
  -2  -3  -7   26.48    2.02
  -2  -3  -7   26.77    2.24
  -2  -3  -8   12.89    1.72
   2  -3   8   11.99    1.80
  -2  -3  -8    9.19    1.73
  -2   3  -8    9.99    1.77
  -2   3  -8   11.45    1.85
  -2   3  -9    6.59    1.86
  -2   3  -9    8.59    1.88
   2  -3   9    8.30    1.79
  -2  -3  -9    6.40    1.72
  -2  -3  -9   12.36    1.82
   2  -3  10   25.10    2.53
  -2  -3 -10   24.75    2.49
  -2   3 -10   22.76    2.51
  -2  -3 -10   25.79    2.44
   2  -3  11    4.37    1.77
  -2   3 -11    4.11    1.81
  -2  -3 -11    4.30    1.70
  -2  -3 -11    6.19    1.71
  -2   4  12   61.71    3.41
   2  -4 -12   65.76    3.57
  -2  -4  11   55.36    3.47
   2  -4 -11   52.55    2.52
   2  -4 -11   49.24    2.98
   2   4 -11   50.92    3.36
  -2   4  11   51.90    2.89
   2  -4 -10    9.73    1.17
  -2  -4  10   12.31    2.05
   2  -4 -10   16.10    1.88
   2   4 -10   10.98    2.10
  -2   4  10   17.23    2.44
  -2   4  10   11.96    1.61
   2   4 -10   12.50    2.00
  -2  -4   9   25.53    2.35
   2   4  -9   24.36    2.40
   2   4  -9   25.06    2.37
   2  -4  -9   24.55    1.98
  -2   4   9   26.23    2.56
  -2   4   9   24.31    1.92
   2   4  -8  217.70    6.61
  -2   4   8  221.79    6.62
   2  -4  -8  222.27    5.75
   2   4  -8  220.29    6.34
  -2  -4   8  214.94    6.35
  -2   4   8  222.82    5.70
  -2  -4   7  542.09   11.83
  -2   4   7  556.98   11.09
   2  -4  -7  563.34   11.11
   2   4  -7  562.86   12.08
   2   4  -7  550.15   11.79
  -2   4   7  559.16   12.13
  -2   4   6  288.09    6.11
   2   4  -6  280.12    5.86
   2  -4  -6  290.19    4.56
   2  -4  -6  296.54    5.14
  -2   4   6  292.35    5.10
   2  -4  -5    3.04    0.56
   2   4  -5    1.73    0.94
   2  -4  -5    3.52    0.72
  -2   4   5    2.81    0.66
  -2   4   5    3.53    1.08
   2  -4  -4    2.52    0.47
  -2   4   4    2.12    0.50
   2  -4  -4    1.90    0.59
  -2   4   4    2.15    0.55
  -2   4   3  602.53   10.57
  -2   4   3  593.27   10.38
   2   4  -2 2312.36   38.70
  -2   4   2 2310.89   38.38
  -2  -4   2 2343.31   38.90
  -2  -4   1  885.69   15.62
   2   4  -1  921.94   15.52
  -2  -4   1  885.11   15.78
   2   4  -1  891.58   15.60
   2   4   0  655.15   11.66
  -2  -4   0  639.96   11.70
  -2   4  -1    9.14    0.78
  -2   4  -1    9.88    0.87
  -2   4  -2 1845.13   31.82
   2  -4   2 1870.41   31.68
  -2  -4  -3 1118.95   19.66
  -2  -4  -4  463.12    9.31
   2   4   4  479.97    9.55
  -2   4  -5    7.91    1.29
   2   4   5    7.68    1.24
  -2  -4  -5    9.02    1.14
  -2  -4  -6  268.08    7.04
  -2   4  -6  283.61    7.15
  -2  -4  -6  276.54    6.66
  -2   4  -6  282.71    7.21
   2   4   6  276.32    6.88
   2  -4   7  252.43    6.92
  -2  -4  -7  261.71    7.08
  -2   4  -7  258.14    7.09
   2   4   7  268.58    7.05
  -2   4  -7  267.47    7.21
  -2  -4  -7  261.03    6.66
  -2   4  -8  402.76    9.92
  -2  -4  -8  399.99    9.30
   2  -4   8  387.31    9.64
  -2   4  -8  389.21    9.83
  -2  -4  -8  402.16    9.77
   2   4   8  392.78    9.70
   2  -4   9   33.60    2.69
  -2  -4  -9   28.81    2.59
  -2  -4  -9   33.47    2.37
  -2   4  -9   28.05    2.68
  -2   4  -9   35.22    2.80
  -2   4 -10    9.15    2.04
  -2  -4 -10   14.49    2.03
  -2  -4 -10   12.51    2.07
   2  -4  10   11.50    2.02
  -2   4 -10   13.49    2.22
  -2  -4 -11   10.82    1.96
  -2  -4 -11   10.80    1.84
  -2   4 -11    8.42    1.87
  -2   5  12    1.15    1.43
   2  -5 -11    7.78    1.42
  -2  -5  11    4.27    1.81
  -2   5  11   10.28    1.69
   2  -5 -11    9.45    1.80
   2   5 -11    7.71    2.06
   2   5 -11    5.16    1.92
  -2  -5  10   -4.40    1.67
  -2   5  10    0.58    1.16
   2  -5 -10   -2.31    1.39
  -2   5  10   -2.44    1.95
   2   5 -10   -0.93    1.64
   2  -5 -10    0.36    0.57
   2   5 -10   -2.54    1.86
  -2   5   9   11.49    1.47
  -2   5   9   14.38    2.19
   2  -5  -9   10.43    1.51
   2   5  -9   12.61    2.02
   2   5  -9   11.69    2.08
  -2  -5   9   11.86    1.79
  -2   5   8   -0.59    1.61
  -2   5   8    2.40    1.07
   2  -5  -8    3.20    1.26
   2   5  -8    1.48    1.64
  -2  -5   8    2.48    1.54
   2   5  -8    3.12    1.51
  -2   5   7    6.23    1.85
   2   5  -7    7.15    1.73
  -2   5   7   11.56    1.34
   2  -5  -7   12.38    1.40
   2   5  -7   12.69    1.82
  -2   5   6    4.10    0.85
  -2   5   6    1.56    1.29
   2   5  -6    2.00    1.11
   2  -5  -6    3.88    0.87
   2   5  -6    1.67    1.17
   2  -5  -6    4.24    0.80
   2  -5  -5    9.55    0.89
   2  -5  -5   11.00    0.82
  -2   5   5    9.96    0.87
   2  -5  -4    9.22    0.72
  -2   5   4    6.81    0.69
  -2   5   4    8.23    0.75
  -2  -5   3  185.94    4.55
  -2   5   3  188.81    3.79
  -2   5   3  189.87    3.90
   2   5  -2   48.67    1.86
  -2  -5   2   45.97    1.75
  -2   5   2   48.45    1.51
  -2  -5   1  222.84    4.76
  -2  -5   1  223.74    4.82
   2   5  -1  222.28    4.76
   2   5  -1  227.61    4.70
  -2   5   0  314.45    5.96
   2   5   0  302.61    6.18
  -2  -5   0  295.71    6.18
  -2   5  -1   90.34    2.51
  -2   5  -1   88.42    2.57
  -2   5  -2  103.06    3.04
   2  -5   2  106.73    3.01
   2  -5   3  107.22    3.29
  -2  -5  -3  112.04    2.95
  -2   5  -3  105.78    3.30
   2   5   4  275.48    6.20
  -2  -5  -4  259.19    5.83
   2   5   5  281.43    6.69
  -2  -5  -5  278.41    6.37
   2   5   6   11.11    1.46
  -2   5  -6    8.61    1.45
  -2  -5  -6    5.93    1.32
  -2  -5  -6    8.41    1.15
   2  -5   7    3.83    1.40
  -2   5  -7    2.48    1.46
   2   5   7    2.30    1.31
  -2  -5  -7    4.00    1.26
  -2  -5  -7    1.33    1.30
  -2   5  -7    3.82    1.46
  -2  -5  -8   10.56    1.83
  -2   5  -8   11.02    2.02
   2  -5   8   12.74    1.75
  -2  -5  -8   13.62    1.72
   2   5   8   13.35    2.02
  -2   5  -8   14.80    2.10
   2  -5   9   32.10    2.55
  -2  -5  -9   39.55    2.50
  -2   5  -9   29.57    2.64
  -2  -5  -9   28.59    2.51
  -2   5  -9   34.16    2.90
  -2   5 -10    9.12    2.13
   2  -5  10   12.84    2.17
  -2   5 -10   14.16    2.29
  -2  -5 -10   11.13    1.99
  -2  -5 -10   10.73    1.81
  -2  -5 -11   -1.12    1.69
  -2  -5 -11    1.00    1.42
   2   6 -11   15.31    2.49
   2  -6 -11   13.74    1.59
   2   6 -11   11.19    2.20
  -2  -6  11   13.74    2.20
   2  -6 -11   12.27    1.85
  -2  -6  10   -1.05    1.68
   2  -6 -10   -0.09    0.35
   2   6 -10    0.38    1.57
  -2   6  10    0.22    1.07
   2  -6 -10    1.04    1.11
  -2   6  10    0.19    1.82
   2   6 -10   -0.70    1.70
   2   6  -9    2.05    1.59
  -2   6   9    0.34    1.69
  -2  -6   9    0.79    1.43
  -2   6   9    1.64    1.10
   2   6  -9    0.16    1.58
   2  -6  -9    1.11    1.16
   2   6  -8  140.43    4.92
   2   6  -8  143.69    5.15
  -2  -6   8  131.11    4.87
   2  -6  -8  140.16    4.10
  -2   6   8  138.06    5.10
  -2   6   8  133.35    3.99
  -2   6   7  401.49    9.69
   2  -6  -7  417.36    8.45
   2   6  -7  408.48    9.73
   2   6  -7  408.16    9.53
  -2   6   7  405.19    8.38
  -2   6   6  186.32    4.34
  -2   6   6  177.97    5.42
   2   6  -6  183.73    5.39
   2  -6  -6  184.14    4.34
   2  -6  -5    3.27    0.67
   2  -6  -5    2.73    0.63
  -2   6   5    2.92    0.70
  -2   6   5    3.60    0.62
  -2  -6   4  396.82    8.47
  -2   6   4  399.28    7.53
   2  -6  -4  388.82    7.44
  -2   6   4  386.11    7.22
  -2   6   3 1299.15   21.63
   2   6  -3 1254.25   22.80
  -2  -6   3 1277.61   22.84
  -2   6   3 1304.07   22.09
   2   6  -2 1520.87   25.93
  -2   6   2 1477.91   25.60
  -2  -6   2 1528.73   26.07
   2   6  -2 1518.61   26.09
  -2   6   1  939.91   16.19
  -2  -6   1  950.28   16.77
   2   6  -1  959.02   16.77
   2   6  -1  947.59   16.81
  -2  -6   0   38.41    1.50
  -2   6   0   39.90    1.43
   2   6   0   40.05    1.67
  -2   6  -1  753.94   13.83
  -2   6  -1  756.61   13.66
   2  -6   2  922.06   16.92
  -2   6  -2  945.13   16.92
   2  -6   3 1875.37   32.84
   2   6   3 1844.43   32.93
  -2   6  -3 1925.55   32.96
  -2  -6  -3 1914.53   32.20
  -2  -6  -4  416.99    8.35
   2   6   4  423.01    9.10
   2  -6   4  430.65    9.11
  -2   6  -4  405.44    9.05
   2   6   5    3.02    1.09
  -2  -6  -5    2.67    0.96
  -2  -6  -5    0.54    0.93
   2   6   6   42.16    2.36
  -2   6  -6   39.73    2.49
  -2  -6  -6   38.38    2.00
  -2  -6  -6   33.16    2.25
  -2   6  -7  712.32   14.92
  -2  -6  -7  690.11   13.87
  -2  -6  -7  697.38   14.61
   2   6   7  697.77   14.53
  -2  -6  -8  314.77    8.26
   2  -6   8  293.28    8.11
  -2   6  -8  305.83    8.43
   2   6   8  314.95    8.27
  -2  -6  -8  298.24    7.56
  -2   6  -8  317.35    8.48
   2  -6   9  155.22    5.64
   2   6   9  170.38    5.90
  -2   6  -9  165.25    5.98
  -2  -6  -9  160.11    5.62
  -2  -6  -9  158.45    5.14
  -2   6  -9  156.74    5.92
  -2   6 -10    0.40    1.55
  -2   6 -10    2.18    1.81
  -2  -6 -10    2.63    1.69
  -2  -6 -10    0.73    1.36
   2  -6  10    3.15    1.62
  -2  -6 -11   15.05    2.00
  -2  -6 -11   10.84    2.01
  -2  -7  11    4.12    1.86
   2  -7 -11    0.49    1.28
   2   7 -11    0.79    1.67
   2   7 -11    2.14    1.89
  -2   7  11   -0.47    1.24
   2   7 -10    1.07    1.56
   2  -7 -10   -0.19    0.48
  -2  -7  10   -0.54    1.72
   2   7 -10   -0.19    1.65
  -2   7  10    0.72    1.18
   2  -7 -10    1.42    1.26
  -2   7   9   79.75    4.13
   2  -7  -9   88.86    3.24
  -2   7   9   85.19    3.10
   2   7  -9   82.34    4.01
   2   7  -9   81.93    4.07
  -2  -7   9   87.78    4.15
  -2   7   8   58.70    3.42
   2  -7  -8   58.38    2.45
   2   7  -8   55.34    3.17
  -2   7   8   55.17    2.36
   2  -7  -7   37.71    1.86
  -2   7   7   35.25    2.66
   2   7  -7   38.75    2.76
  -2   7   7   36.93    1.81
  -2   7   6   29.91    1.62
   2  -7  -6   29.82    1.42
  -2   7   6   29.19    1.41
  -2   7   5  123.95    2.93
  -2   7   5  127.23    3.37
  -2  -7   5  130.04    4.21
  -2   7   4  434.85    7.81
  -2  -7   4  432.99    9.29
   2   7  -4  428.23    9.20
  -2   7   4  449.27    8.45
  -2   7   3  376.79    7.37
  -2   7   3  374.37    6.64
  -2  -7   3  374.83    7.99
   2   7  -3  383.81    7.97
  -2  -7   2   63.51    2.30
  -2   7   2   59.18    2.02
   2   7  -2   59.04    2.17
   2   7  -2   63.40    2.24
  -2   7   1  351.16    6.46
   2   7  -1  344.29    7.16
   2   7   0  818.11   14.87
  -2   7   0  820.69   14.35
  -2  -7   0  802.12   14.48
  -2   7  -1   58.15    2.27
  -2   7  -1   62.13    2.09
  -2   7  -2    7.08    0.97
   2  -7   2    5.85    1.06
   2  -7   3    1.98    0.97
   2   7   3    2.19    0.95
  -2   7  -3    2.04    0.94
  -2  -7  -4  139.15    3.64
   2  -7   4  146.27    4.39
   2   7   4  140.56    4.30
  -2   7  -4  139.75    4.36
   2  -7   5  232.08    6.20
  -2   7  -5  232.69    6.38
   2  -7   5  244.26    6.47
  -2  -7  -5  247.41    5.65
  -2  -7  -5  241.85    6.31
   2  -7   6    1.48    0.88
   2   7   6    6.00    1.37
   2  -7   6    6.40    1.45
  -2  -7  -6    5.90    1.30
  -2  -7  -6    5.10    1.03
  -2  -7  -7   20.30    2.06
  -2   7  -7   25.41    2.29
   2   7   7   23.94    2.23
  -2  -7  -7   20.61    1.73
  -2  -7  -8    5.08    1.62
  -2  -7  -8    7.87    1.53
  -2   7  -8    6.93    1.85
   2   7   8    5.84    1.89
  -2  -7  -9   33.09    2.36
   2  -7   9   27.29    2.52
   2   7   9   35.73    2.85
  -2   7  -9   32.22    2.85
  -2   7  -9   29.92    2.81
  -2  -7  -9   29.96    2.49
  -2   7 -10   46.83    3.42
   2  -7  10   46.29    3.23
  -2   7 -10   38.37    3.19
  -2  -7 -10   45.30    3.13
  -2  -7 -10   38.39    2.63
   2   7  10   39.25    3.15
  -2  -7 -11   10.34    1.95
  -2  -8  11   23.56    2.77
   2  -8 -10   17.62    1.60
   2  -8 -10   23.32    1.85
  -2  -8  10   20.08    2.40
   2   8 -10   14.19    2.20
   2   8 -10   22.77    2.57
  -2   8  10   18.62    1.66
   2   8  -9   13.32    2.21
   2  -8  -9   14.48    1.46
   2   8  -9   15.55    2.24
  -2   8   9   14.66    1.44
  -2   8   8  108.87    4.69
  -2   8   8  118.32    3.45
   2  -8  -8  124.66    3.57
   2   8  -8  118.99    4.79
  -2   8   7  132.12    3.43
   2  -8  -7  129.52    3.44
  -2   8   7  128.91    4.94
  -2  -8   6   32.04    2.42
  -2   8   6   34.74    1.79
  -2   8   6   34.81    1.37
  -2  -8   5   83.31    3.26
  -2   8   5   79.22    2.62
  -2   8   5   81.29    2.04
   2   8  -5   77.75    3.21
  -2  -8   5   79.72    3.35
   2   8  -4   27.44    1.83
  -2  -8   4   27.36    1.89
  -2   8   4   24.93    0.85
  -2   8   4   25.40    1.41
   2   8  -3  312.72    6.59
  -2  -8   3  299.76    6.60
  -2   8   3  296.81    6.02
  -2   8   2  107.27    2.33
  -2   8   2  111.00    3.10
   2   8  -2  113.90    3.31
   2   8  -1  242.01    5.55
  -2   8   1  243.07    4.75
  -2  -8   0   97.39    2.71
   2   8   0   94.80    3.03
  -2   8   0  102.36    2.64
  -2   8  -1    0.85    0.92
  -2   8  -1    0.58    0.59
  -2   8  -2  957.74   17.66
  -2   8  -2  982.96   18.02
   2   8   3  527.35   10.92
   2  -8   3  541.26   11.02
  -2   8  -3  532.50   10.89
  -2  -8  -4  449.54    6.76
   2  -8   4  453.17    8.08
  -2   8  -4  467.36    8.14
   2   8   4  470.53    8.16
  -2  -8  -5    1.38    1.15
  -2  -8  -5    1.78    0.93
   2  -8   5    2.25    1.31
   2  -8   5    2.41    1.42
   2   8   5    0.58    1.31
  -2   8  -5    2.51    1.22
  -2  -8  -6    8.91    1.13
   2  -8   6    8.28    1.46
  -2  -8  -6   10.01    1.50
   2   8   6    9.37    1.53
   2  -8   6   10.95    1.69
  -2   8  -6    8.47    1.50
   2  -8   7  136.58    4.96
   2   8   7  122.05    4.59
   2  -8   7  118.85    4.49
  -2   8  -7  123.36    4.78
  -2  -8  -7  119.82    3.86
  -2  -8  -7  117.06    4.48
  -2  -8  -8  361.64    9.24
  -2  -8  -8  353.83    8.34
  -2   8  -8  374.49    9.68
   2   8   8  366.98    9.38
   2  -8   8  357.19    9.55
  -2  -8  -9   21.33    2.25
  -2   8  -9   21.08    2.50
   2  -8   9   16.24    2.43
  -2  -8  -9   15.93    1.85
   2   8   9   18.73    2.30
  -2  -8 -10    3.38    1.59
   2  -8  10    4.08    1.74
   2   8  10    3.47    1.94
  -2  -8 -10    3.22    1.42
   2  -8  10    0.62    1.89
  -2   8 -10    2.08    1.82
  -2   8 -10    0.84    1.77
  -2  -8 -11   -1.91    1.72
  -2  -9  10   23.83    2.83
  -2   9  10   15.79    1.55
   2   9 -10   16.51    2.27
   2  -9 -10   16.06    1.59
   2   9 -10   22.23    2.69
   2  -9 -10   16.10    1.63
  -2  -9  10   20.08    2.55
  -2   9   9   37.08    1.82
   2  -9  -9   36.46    1.82
  -2  -9   9   37.35    3.02
   2   9  -9   32.10    2.80
  -2   9   8    6.36    1.05
   2   9  -8    8.32    1.90
   2  -9  -8    6.52    1.04
  -2  -9   8    7.59    1.90
  -2  -9   7   20.80    2.32
  -2   9   7   23.00    1.29
  -2  -9   7   23.58    2.35
  -2   9   6   20.29    1.56
  -2  -9   6   20.89    2.15
  -2   9   6   21.96    1.03
   2   9  -6   19.94    2.00
  -2  -9   6   18.06    1.90
   2   9  -5   15.54    1.61
  -2   9   5   14.97    1.34
  -2  -9   5   13.27    1.67
  -2  -9   5   15.01    1.63
   2   9  -4  207.21    5.57
  -2  -9   4  220.91    5.81
  -2   9   4  220.02    5.10
   2   9  -3   12.15    1.24
  -2   9   3   10.67    1.14
   2   9  -3   11.01    1.29
  -2  -9   3   13.45    1.52
  -2   9   2   26.12    1.51
   2   9  -2   27.66    1.70
   2   9  -2   25.97    1.59
  -2   9   2   26.10    0.82
  -2   9   1   36.17    1.25
   2   9  -1   33.45    1.83
  -2  -9   0  262.33    5.50
  -2   9   0  255.02    5.34
   2   9   0  250.38    6.00
  -2   9  -1   11.18    0.99
  -2  -9  -1   12.01    0.91
  -2   9  -2  100.72    3.21
  -2   9  -2  102.61    3.53
  -2   9  -3   37.56    2.10
   2   9   3   41.33    2.22
   2  -9   3   37.53    2.18
  -2  -9  -4  209.31    4.74
   2  -9   4  194.49    5.49
  -2   9  -4  206.01    5.72
   2   9   4  209.20    5.77
  -2  -9  -4  225.29    5.89
   2  -9   4  216.27    5.87
   2  -9   5  286.96    7.32
  -2  -9  -5  308.59    7.52
   2  -9   5  288.08    7.47
  -2   9  -5  287.63    7.48
   2   9   5  296.60    7.47
  -2  -9  -5  292.69    6.36
  -2  -9  -6    0.92    1.13
   2  -9   6   -0.39    1.12
   2   9   6   -0.63    1.36
  -2  -9  -6    0.15    0.73
  -2   9  -6   -1.26    1.47
   2  -9   6   -1.27    1.47
   2   9   7    2.43    1.54
   2  -9   7    2.65    1.52
   2  -9   7    1.90    1.59
  -2  -9  -7    0.44    1.06
  -2   9  -7    2.05    1.64
  -2  -9  -7    2.01    1.43
  -2  -9  -8   59.71    2.77
  -2  -9  -8   60.39    3.39
  -2   9  -8   67.86    3.75
   2   9   8   63.97    3.56
   2  -9   8   57.51    3.31
   2  -9   8   61.37    3.64
   2  -9   9   48.85    3.47
  -2   9  -9   52.38    3.61
  -2  -9  -9   49.55    2.68
  -2  -9  -9   56.96    3.33
   2   9   9   57.33    3.43
  -2  -9 -10   25.94    2.57
  -2   9 -10   22.76    2.80
   2  -9  10   20.56    2.72
   2   9  10   23.18    2.71
  -2 -10  10    0.42    1.89
   2 -10 -10    0.65    1.18
   2  10 -10   -1.04    1.84
  -2 -10   9    5.77    1.92
   2 -10  -9    6.47    1.30
   2  10  -9    5.93    1.98
  -2  10   8   96.62    2.25
  -2 -10   8   87.58    3.90
  -2 -10   8   88.70    4.00
   2  10  -8   97.11    4.18
  -2 -10   7  210.95    6.58
  -2  10   7  212.78    4.40
  -2  10   7  205.15    5.47
   2  10  -7  206.04    6.34
  -2 -10   7  212.79    6.44
  -2 -10   6  104.91    4.21
  -2 -10   6  102.85    4.05
   2  10  -6  104.65    4.11
  -2  10   6  104.57    3.46
  -2 -10   5   11.81    1.68
   2  10  -5    8.95    1.49
  -2 -10   5    9.97    1.57
  -2  10   5   10.98    1.24
  -2 -10   4  188.44    4.79
   2  10  -4  195.16    4.65
   2  10  -3  470.41    9.80
  -2  10   3  463.11    9.45
   2  10  -3  479.16    9.83
  -2  10   2  596.97   10.91
   2  10  -2  581.14   10.87
   2  10  -2  581.91   11.12
  -2  10   1  241.50    4.74
   2  10  -1  233.27    5.80
  -2  10   0    4.58    0.75
   2  10   0    3.05    0.98
  -2  10  -1   97.49    2.94
  -2 -10  -1  100.05    2.72
  -2  10  -1   98.09    3.47
  -2  10  -2   87.87    3.30
  -2  10  -2   86.07    2.95
   2  10   3  506.52   10.86
  -2  10  -3  514.24   10.69
  -2 -10  -3  520.42   10.99
   2 -10   4   74.12    3.13
   2  10   4   75.11    3.21
  -2  10  -4   76.55    3.18
  -2 -10  -4   72.73    2.32
  -2 -10  -4   70.82    3.15
   2  10   5    1.13    1.29
   2 -10   5    0.39    1.19
  -2 -10  -5   -1.53    1.36
   2 -10   5    0.24    1.16
  -2  10  -5    1.53    1.27
  -2 -10  -5    0.49    0.81
   2 -10   6   33.84    2.34
  -2 -10  -6   32.56    1.70
   2  10   6   27.78    2.29
   2 -10   6   29.65    2.43
  -2 -10  -6   27.25    2.23
  -2  10  -6   27.65    2.35
   2 -10   7  253.07    7.44
   2  10   7  269.11    7.51
   2 -10   7  281.28    7.86
  -2 -10  -7  266.61    7.47
  -2  10  -7  258.28    7.61
  -2 -10  -7  271.68    6.31
   2 -10   8  100.85    4.71
   2  10   8  113.09    4.73
   2 -10   8  110.67    4.60
  -2  10  -8  100.60    4.65
  -2 -10  -8  113.54    3.73
  -2 -10  -8  110.37    4.55
  -2  10  -8  103.00    4.76
   2 -10   9   67.77    3.80
   2  10   9   72.20    3.90
   2 -10   9   67.09    3.95
  -2  10  -9   59.63    3.81
  -2 -10  -9   74.14    3.79
  -2 -10  -9   62.46    2.88
  -2 -10 -10    2.79    1.64
   2 -11 -10   18.17    1.83
   2  11 -10   18.53    2.66
  -2 -11  10   17.94    2.63
   2  11  -9   53.19    3.62
  -2 -11   9   44.90    3.29
   2 -11  -9   54.32    2.62
  -2 -11   9   50.11    3.39
  -2 -11   8   42.34    3.07
   2  11  -8   43.43    3.00
  -2 -11   8   41.64    3.16
  -2  11   7    6.22    1.30
  -2 -11   7    4.48    1.91
   2  11  -7    8.32    1.83
  -2 -11   6   53.44    3.04
  -2  11   6   58.98    2.61
   2  11  -6   55.29    3.05
  -2 -11   6   56.52    3.18
  -2 -11   5  149.34    4.96
  -2  11   5  162.16    4.50
  -2 -11   5  166.59    5.28
   2  11  -5  161.21    5.00
  -2 -11   4  194.34    5.45
   2  11  -4  194.90    5.42
  -2 -11   4  197.71    5.63
  -2  11   4  200.08    5.07
   2  11  -3  100.91    3.46
   2  11  -3   91.68    3.39
  -2  11   3  101.92    3.28
  -2  11   2  124.96    3.67
   2  11  -2  123.99    3.57
   2  11  -2  124.42    3.85
   2  11  -1  175.55    4.91
  -2  11   1  178.50    3.74
   2  11   0  297.94    7.19
  -2  11   0  302.04    7.37
  -2  11   0  322.66    6.38
  -2 -11  -1   50.91    1.81
  -2  11  -1   47.09    2.45
  -2  11  -1   45.21    1.95
  -2  11  -2    6.01    1.46
  -2 -11  -2    3.32    0.68
  -2  11  -2    3.56    0.95
  -2 -11  -3    4.21    1.25
   2  11   3    6.91    1.36
  -2  11  -3    3.36    1.19
   2  11   4   90.33    3.59
   2 -11   4   83.67    3.37
   2 -11   4   86.05    3.65
  -2 -11  -4   87.37    2.50
  -2  11  -4   88.59    3.50
  -2 -11  -4   81.91    3.54
   2  11   5  140.89    4.84
  -2 -11  -5  142.43    3.60
   2 -11   5  140.47    4.91
  -2  11  -5  132.85    4.73
   2 -11   5  133.96    4.65
  -2 -11  -5  141.33    4.87
  -2 -11  -6   41.75    1.87
   2  11   6   37.61    2.57
  -2  11  -6   34.27    2.55
   2 -11   6   36.67    2.65
   2 -11   6   34.88    2.48
  -2 -11  -6   32.99    2.52
   2 -11   7   23.24    2.41
  -2 -11  -7   24.89    2.42
   2  11   7   26.20    2.50
  -2  11  -7   22.41    2.38
   2 -11   7   22.83    2.21
  -2 -11  -7   25.51    1.64
  -2 -11  -8    5.02    1.66
   2 -11   8    3.51    1.81
   2  11   8    2.88    1.67
   2 -11   8    3.45    1.76
  -2  11  -8    5.73    1.92
  -2 -11  -8    5.84    1.21
   2 -11   9   44.94    3.29
  -2 -11  -9   50.58    3.31
   2 -11   9   52.75    3.61
  -2  11  -9   46.77    3.46
  -2  11  -9   51.69    3.64
   2  11   9   48.58    3.36
  -2 -11 -10   53.51    3.57
  -2 -12   9   13.33    2.18
   2 -12  -9   15.78    1.73
  -2 -12   9   15.37    2.59
   2  12  -9   14.50    2.43
   2  12  -9   14.09    2.34
   2  12  -8   49.50    3.20
  -2 -12   8   49.44    3.26
  -2 -12   8   40.45    3.04
  -2  12   7   46.23    2.45
   2  12  -7   38.08    2.81
  -2 -12   7   43.20    2.99
  -2 -12   7   41.25    3.04
  -2 -12   6   12.31    1.98
  -2  12   6   16.81    1.64
  -2 -12   6   19.58    2.13
   2  12  -6   18.56    2.01
  -2 -12   5    1.08    1.46
  -2 -12   5   -0.88    1.30
  -2  12   5   -0.19    1.03
   2  12  -5    0.12    1.20
  -2 -12   4   -0.78    1.19
   2  12  -4    0.86    1.17
  -2  12   4    0.63    1.02
   2  12  -3   71.06    2.98
   2  12  -3   65.16    2.80
  -2  12   3   71.89    2.83
   2  12  -2  286.88    6.36
  -2  12   2  292.72    6.22
   2  12  -2  282.97    5.92
  -2  12   1   64.92    2.78
  -2  12   1   66.42    1.87
   2  12  -1   62.83    2.87
  -2  12   0   44.47    1.76
  -2  12   0   48.85    2.60
  -2  12  -1    0.23    1.24
  -2  12  -1    0.35    0.78
  -2  12  -2  281.14    5.91
  -2 -12  -2  278.87    4.97
  -2  12  -2  272.47    6.63
  -2 -12  -3  182.45    4.65
  -2 -12  -3  185.04    2.84
  -2  12  -3  180.24    4.21
   2  12   3  190.20    4.60
  -2 -12  -4   97.41    2.64
   2 -12   4   93.40    3.65
  -2 -12  -4  101.97    3.96
   2  12   4   95.49    3.82
  -2  12  -4   98.60    3.80
   2 -12   5    2.18    1.29
  -2 -12  -5    0.42    1.35
   2  12   5    1.78    1.34
  -2  12  -5    1.08    1.37
  -2 -12  -5    0.84    0.71
   2 -12   5    2.63    1.45
   2 -12   6  101.75    4.21
  -2 -12  -6  116.01    3.19
   2  12   6  118.46    4.55
   2 -12   6  112.67    4.63
  -2  12  -6  102.89    4.42
  -2 -12  -6  112.20    4.46
  -2 -12  -7   30.41    2.55
  -2 -12  -7   26.65    1.62
   2  12   7   28.26    2.61
   2 -12   7   22.92    2.46
   2 -12   7   26.00    2.41
  -2  12  -7   31.28    2.68
   2  12   8   72.70    3.90
  -2 -12  -8   74.72    2.77
  -2  12  -8   65.52    3.81
   2 -12   8   75.02    4.09
  -2 -12  -8   71.57    3.79
   2 -12   8   64.37    3.73
   2 -12   9   -0.21    1.96
  -2 -12  -9    0.37    1.58
   2 -12   9    1.55    1.74
   2  12   9    1.92    1.84
  -2  12  -9   -0.21    1.90
  -2 -12 -10    0.19    1.69
  -2 -13   9    7.88    2.12
   2  13  -9    9.53    2.35
   2  13  -9    8.49    2.09
  -2 -13   9   11.76    2.19
  -2 -13   8    8.17    1.88
  -2 -13   8    4.93    1.91
  -2  13   8    5.90    1.46
   2  13  -8    4.21    1.77
  -2 -13   7    1.55    1.68
  -2 -13   7    0.81    1.60
  -2  13   7    0.23    1.12
   2  13  -7    3.64    1.66
  -2 -13   6    3.77    1.54
  -2 -13   6    3.60    1.64
   2  13  -6    3.69    1.46
  -2  13   6    5.42    1.27
  -2  13   5   16.29    1.62
   2  13  -5   16.53    1.80
  -2 -13   5   14.93    1.94
  -2 -13   5   16.13    1.92
   2  13  -4   35.29    2.38
   2  13  -4   33.60    2.23
  -2  13   4   41.18    2.23
  -2 -13   4   37.55    2.35
  -2  13   3    4.24    1.21
   2  13  -3    3.50    1.33
   2  13  -3    4.39    1.26
  -2 -13   3   -0.10    0.49
   2  13  -2    1.82    1.49
   2  13  -2    1.99    1.26
  -2  13   2    2.20    1.25
   2  13  -2    3.22    1.13
  -2  13   1   56.25    1.70
   2  13  -1   57.14    2.87
  -2  13   1   55.91    2.73
   2  13  -1   53.27    2.77
   2  13   0  196.88    5.63
  -2  13   0  201.80    4.52
  -2  13  -1  201.19    5.92
  -2  13  -1  214.05    5.11
  -2 -13  -2   70.10    3.21
  -2  13  -2   70.06    2.81
  -2 -13  -2   68.64    2.17
   2  13   2   71.79    3.18
  -2  13  -2   70.24    3.40
  -2 -13  -3   60.08    1.90
  -2 -13  -3   63.87    3.15
  -2  13  -3   60.78    2.83
   2  13   3   62.34    3.01
  -2 -13  -4  169.98    3.86
   2 -13   4  178.46    5.29
  -2 -13  -4  176.64    5.60
  -2 -13  -4  175.71    3.90
   2  13   4  179.99    5.56
  -2  13  -4  172.34    5.36
   2 -13   5  201.34    5.99
   2  13   5  200.31    6.13
  -2 -13  -5  199.77    4.39
   2 -13   5  188.40    6.19
  -2  13  -5  205.88    6.20
  -2 -13  -5  205.58    6.21
   2 -13   6   69.85    3.55
  -2 -13  -6   76.78    2.36
  -2  13  -6   76.06    3.78
   2  13   6   74.28    3.68
   2 -13   6   68.15    3.70
  -2 -13  -6   82.81    3.83
   2 -13   7   -0.36    1.57
   2  13   7   -0.83    1.64
   2 -13   7    0.99    1.52
  -2 -13  -7   -1.00    1.59
  -2 -13  -7    0.56    0.80
  -2  13  -7   -0.70    1.47
   2 -13   8   13.86    2.39
   2  13   8   14.86    2.24
   2 -13   8   16.33    2.29
  -2 -13  -8   17.16    2.28
  -2  13  -8   14.89    2.29
   2  13   9   75.45    4.25
  -2 -14   9    2.57    1.65
  -2 -14   9    4.49    1.95
   2  14  -9    1.19    1.66
  -2 -14   8   18.79    2.31
  -2 -14   8   20.99    2.70
  -2  14   8   21.76    2.02
   2  14  -8   15.11    2.33
   2  14  -7   47.86    3.14
  -2 -14   7   46.54    3.30
  -2 -14   7   45.34    3.11
  -2 -14   6    3.01    1.65
  -2  14   6    5.46    1.38
   2  14  -6    5.26    1.63
  -2 -14   6    2.95    1.67
   2  14  -5    0.13    1.33
  -2  14   5    1.52    1.17
  -2 -14   5   -0.94    1.46
   2  14  -4  110.37    4.17
   2  14  -4  106.65    3.96
  -2 -14   4  111.39    4.08
  -2  14   4  109.22    3.85
   2  14  -3   75.13    3.34
  -2 -14   3   67.61    2.97
  -2  14   3   73.74    3.14
   2  14  -3   74.57    3.08
   2  14  -2  222.27    6.22
   2  14  -2  223.13    5.66
  -2  14   2  229.89    6.09
   2  14  -2  228.21    6.50
  -2  14   1    2.59    1.34
   2  14  -1    3.60    1.47
   2  14  -1    3.56    1.44
  -2  14   1    6.06    0.68
  -2  14   0   53.43    2.00
   2  14   0   54.07    2.87
  -2  14   0   57.47    3.04
  -2  14  -1   77.68    2.76
  -2  14  -1   77.57    3.61
  -2  14  -2    6.38    1.23
  -2  14  -2   10.59    1.88
  -2 -14  -2    7.60    0.90
   2  14   2    8.09    1.54
   2 -14   3  131.66    4.33
  -2 -14  -3  143.18    4.89
  -2  14  -3  133.95    4.39
  -2 -14  -3  134.53    3.18
   2  14   3  130.45    4.70
  -2 -14  -4    7.39    1.66
  -2  14  -4    3.92    1.45
   2 -14   4    4.11    1.41
   2  14   4    4.30    1.45
  -2 -14  -4    4.59    0.66
  -2 -14  -4    6.77    0.69
  -2 -14  -5    6.58    0.72
   2 -14   5    6.40    1.55
  -2 -14  -5    5.49    1.62
  -2 -14  -5    6.22    0.68
   2  14   5    6.42    1.63
  -2  14  -5    5.30    1.52
   2  14   6    3.03    1.60
   2 -14   6    2.89    1.49
  -2 -14  -6    3.56    1.59
  -2  14  -6    4.99    1.72
  -2 -14  -6    3.34    0.71
   2 -14   6    2.44    1.69
   2 -14   7   52.40    3.35
   2  14   7   55.73    3.35
  -2  14  -7   44.96    3.23
   2 -14   7   44.13    3.34
  -2 -14  -7   48.92    1.81
  -2 -14  -7   56.72    3.36
   2 -14   8    9.40    2.14
   2 -14   8    7.81    1.95
  -2 -14  -8    9.47    1.96
  -2  14  -8    6.54    1.85
   2  14   8    6.83    1.95
  -2 -14  -9   34.50    3.00
   2  15  -8   11.80    2.07
  -2 -15   8   11.94    2.27
  -2 -15   8    8.94    2.06
  -2  15   8    9.39    1.67
   2  15  -7    3.01    1.70
  -2  15   7    3.97    1.45
  -2 -15   7    3.72    1.93
  -2 -15   7    6.69    1.82
   2  15  -6   49.38    3.09
  -2 -15   6   52.23    3.21
  -2  15   6   49.21    2.72
   2  15  -5  103.65    4.19
   2  15  -5   97.90    4.04
  -2  15   5  102.14    3.86
  -2 -15   5  106.95    4.25
  -2  15   4   24.73    1.98
   2  15  -4   28.43    2.31
  -2 -15   4   25.61    2.15
   2  15  -4   22.76    2.04
   2  15  -3   13.68    1.60
  -2  15   3    9.68    1.63
   2  15  -3    9.25    1.69
  -2 -15   3   11.66    1.58
   2  15  -2   26.15    2.52
  -2  15   2   24.62    2.11
   2  15  -2   25.80    2.19
   2  15  -1   24.13    2.33
  -2  15   1   22.02    1.08
   2  15  -1   26.90    2.17
  -2  15   1   26.96    2.10
  -2  15   0   14.67    1.93
  -2  15   0   15.29    1.15
   2  15   0   11.77    1.88
  -2  15  -1   51.07    2.25
  -2  15  -1   52.12    3.00
  -2 -15  -2    0.73    0.68
  -2  15  -2   -0.15    1.51
  -2  15  -2    1.33    1.12
   2  15   2    0.13    1.33
   2  15   3    5.71    1.66
   2 -15   3    4.16    1.31
  -2 -15  -3    3.10    0.63
  -2  15  -3    1.69    1.26
  -2 -15  -4    1.77    0.50
   2 -15   4    0.75    1.35
  -2 -15  -4    1.37    1.35
   2  15   4    1.90    1.42
  -2 -15  -4    2.13    0.49
  -2  15  -4    2.33    1.34
   2  15   5    8.86    1.77
   2 -15   5    8.17    1.64
  -2 -15  -5    8.55    1.80
  -2 -15  -5    7.56    0.59
  -2  15  -5    9.13    1.78
  -2 -15  -6   67.64    3.65
   2 -15   6   70.13    3.59
  -2 -15  -6   58.86    1.64
   2  15   6   64.17    3.55
  -2  15  -6   63.75    3.51
  -2  15  -7   17.09    2.35
   2  15   7   18.09    2.35
  -2 -15  -7   18.42    2.32
   2 -15   7   19.31    2.36
   2 -15   7   18.24    2.44
   2  15   8    2.10    1.81
   2 -15   8    1.72    1.59
  -2 -15  -8    2.83    1.73
  -2  15  -8    0.41    1.76
   2  16  -8    7.19    1.99
  -2 -16   8    7.27    1.98
  -2  16   8    4.24    1.46
  -2 -16   8    3.15    1.91
  -2 -16   7    5.82    1.78
  -2  16   7    4.60    1.47
   2  16  -7    6.71    1.83
   2  16  -6    2.18    1.53
   2  16  -6    1.84    1.44
  -2  16   6    2.72    1.44
  -2 -16   6    2.72    1.59
  -2 -16   5   -0.15    1.35
   2  16  -5    0.89    1.49
   2  16  -5    2.24    1.44
  -2  16   5   -0.50    1.24
  -2 -16   4    4.01    1.45
   2  16  -4    2.15    1.38
   2  16  -4    1.89    1.39
  -2  16   4    1.50    1.27
  -2  16   3    3.28    1.33
   2  16  -3    5.86    1.61
   2  16  -3    3.82    1.28
  -2 -16   3    1.72    1.22
   2  16  -3    5.20    1.77
   2  16  -2  109.06    3.85
  -2  16   2  106.73    3.75
   2  16  -2  104.37    4.05
   2  16  -1    2.89    1.52
   2  16  -1    5.19    1.55
  -2  16   1    5.20    0.66
  -2  16   0    8.14    1.61
  -2  16   0   12.46    2.01
  -2  16   0   12.11    1.07
   2  16   0    7.84    1.72
  -2  16  -1    0.15    1.42
  -2  16  -1    0.72    0.93
  -2 -16  -2   75.92    1.90
   2  16   2   75.74    3.35
   2 -16   3   49.82    2.69
  -2 -16  -3   46.66    1.49
   2  16   3   56.10    3.18
  -2  16  -3   52.56    2.76
  -2 -16  -4   17.78    2.07
   2 -16   4   18.76    1.96
   2  16   4   17.99    2.09
  -2 -16  -4   13.06    0.58
  -2  16  -4   16.58    1.85
  -2  16  -5   -0.61    1.41
   2 -16   5   -1.60    1.53
  -2 -16  -5   -0.67    1.58
   2  16   5   -0.32    1.50
  -2 -16  -6   61.73    3.59
   2 -16   6   52.33    3.25
   2  16   6   60.12    3.53
  -2  16  -6   66.57    3.62
   2 -16   7    1.25    1.53
   2  16   7   -0.37    1.65
  -2 -16  -7    1.12    1.57
  -2  16  -7    1.32    1.50
  -2 -16  -8    6.44    1.87
  -2  17   8   -0.59    1.32
   2  17  -8   -1.56    1.86
  -2 -17   7    2.34    1.63
   2  17  -7    0.88    1.61
  -2  17   7    2.00    1.42
   2  17  -6   10.91    1.93
   2  17  -6    9.61    1.96
  -2 -17   6    7.12    1.83
  -2  17   6   11.03    1.83
  -2 -17   5    7.03    1.72
   2  17  -5    9.76    1.80
   2  17  -5    9.30    1.84
  -2  17   5    8.99    1.60
  -2 -17   4   14.14    1.86
  -2  17   4   18.72    1.96
   2  17  -4   14.93    1.83
   2  17  -4   15.30    2.07
  -2  17   3    2.18    1.41
   2  17  -3    0.60    1.43
   2  17  -3    4.93    1.31
  -2 -17   3    1.31    1.33
  -2  17   2   18.48    2.02
   2  17  -2   17.66    2.35
   2  17  -2   18.60    2.09
   2  17  -1    5.10    1.55
  -2  17   1    8.01    1.66
   2  17  -1    5.11    1.80
   2  17   0   33.21    2.64
  -2  17   0   29.04    2.63
  -2  17   0   27.10    1.50
  -2  17   0   25.52    2.31
  -2  17  -1   81.82    2.92
  -2  17  -1   81.03    4.05
  -2  17  -2   29.31    2.64
  -2  17  -2   31.00    2.03
   2  17   2   31.29    2.41
  -2 -17  -2   29.42    1.28
   2 -17   3   24.63    2.09
  -2 -17  -3   18.98    0.82
  -2  17  -3   25.69    2.13
   2  17   3   22.55    2.27
   2 -17   4   28.82    2.33
   2  17   4   24.60    2.41
  -2  17  -4   31.39    2.42
   2 -17   5   62.11    3.32
  -2 -17  -5   59.54    3.53
   2  17   5   63.09    3.58
  -2  17  -5   59.97    3.36
   2 -17   6   26.48    2.58
   2  17   6   25.83    2.58
  -2  17  -6   31.89    2.81
   2  17   7    3.61    1.78
   2 -17   7   -1.28    1.63
  -2 -17  -7   -0.58    1.70
  -2  17  -7    2.52    1.80
  -2  18   8    0.47    1.42
   2  18  -7   15.93    2.23
  -2 -18   7    9.97    2.08
   2  18  -7   12.20    2.17
  -2  18   7   10.88    1.83
  -2 -18   6    3.23    1.67
   2  18  -6    1.99    1.61
   2  18  -6    0.69    1.56
  -2  18   6    3.81    1.61
   2  18  -5   -0.30    1.40
   2  18  -5   -0.17    1.56
  -2 -18   5   -1.24    1.57
  -2  18   5   -0.43    1.40
  -2 -18   4    7.49    1.67
  -2  18   4    9.30    1.77
   2  18  -4    6.64    1.80
   2  18  -4    8.98    1.63
  -2  18   3    4.39    1.52
   2  18  -3    2.21    1.61
   2  18  -3    5.41    1.37
  -2 -18   3    4.46    1.44
  -2 -18   2   33.31    2.21
  -2  18   2   34.56    2.62
   2  18  -2   34.60    2.95
   2  18  -2   38.14    2.74
   2  18  -1   -1.16    1.76
   2  18  -1   -0.78    1.49
  -2  18   1    0.15    1.44
  -2  18   1   -0.30    0.42
  -2  18   1   -0.88    1.64
   2  18   0    4.27    1.76
  -2  18   0    1.22    1.57
  -2  18   0    1.40    1.51
  -2  18   0    2.00    0.77
  -2  18  -1    2.43    1.58
  -2  18  -1    2.80    1.71
  -2  18  -1    7.12    1.17
   2  18   1    1.82    1.60
  -2  18  -2    0.90    1.70
  -2  18  -2   -0.31    1.25
   2  18   2    2.06    1.45
   2 -18   3    6.68    1.55
   2  18   3    9.03    1.92
   2 -18   4    0.96    1.28
  -2  18  -4    1.70    1.37
   2  18   4    0.34    1.49
   2 -18   5    0.62    1.45
   2  18   5    0.53    1.53
  -2  18  -5   -0.48    1.50
   2  18   6    9.42    1.97
   2 -18   6    9.74    1.97
  -2 -18  -6   11.51    2.07
  -2  18  -6    9.84    1.95
   2 -18   7   10.52    2.15
  -2  18  -7    7.90    1.97
  -2 -19   7    3.04    1.88
   2  19  -7    1.88    1.79
  -2  19   7    3.84    1.57
   2  19  -6   11.34    2.14
  -2 -19   6    9.69    1.96
   2  19  -6    9.49    2.03
  -2  19   6   10.88    1.89
  -2 -19   5   16.97    2.16
   2  19  -5   15.57    2.18
   2  19  -5   13.88    2.04
  -2  19   5   18.47    2.18
  -2 -19   4   23.90    2.28
   2  19  -4   19.65    2.06
   2  19  -4   21.48    2.43
  -2  19   4   23.37    2.33
  -2 -19   3    1.27    1.41
  -2  19   3    0.94    1.61
   2  19  -3   -0.84    1.51
   2  19  -2   11.74    2.19
  -2  19   2    8.18    1.86
   2  19  -2    8.31    1.96
  -2 -19   2    7.49    1.52
  -2  19   1   41.73    2.92
  -2  19   1   44.46    3.25
   2  19  -1   41.16    3.07
   2  19  -1   39.52    2.94
   2  19   0   25.57    2.64
  -2  19   0   31.81    2.83
  -2  19   0   26.72    2.57
  -2  19   0   28.61    1.52
  -2  19  -1    6.56    1.87
  -2  19  -1    5.79    1.92
   2  19   1    6.12    1.86
  -2  19  -1    7.67    1.19
   2  19   1    3.52    1.70
  -2 -19  -2    1.17    0.52
  -2  19  -2   -0.32    1.16
  -2  19  -2    0.58    1.76
   2  19   2    2.68    1.64
   2 -19   3    6.97    1.57
   2  19   3    5.54    1.76
  -2  19  -3    5.51    1.45
   2 -19   4    7.29    1.69
  -2  19  -4    7.79    1.69
   2  19   4    8.93    2.01
  -2  19  -5   20.08    2.32
   2 -19   5   25.06    2.36
   2  19   5   25.41    2.61
   2 -19   6    5.08    1.85
  -2  19  -6    6.56    1.83
  -2  20   7    1.69    1.63
  -2 -20   6   -0.36    1.57
   2  20  -6   -0.52    1.52
  -2  20   6    0.99    1.56
  -2 -20   5    7.43    1.79
   2  20  -5    5.41    1.80
   2  20  -5    5.13    1.57
  -2  20   5    5.35    1.70
  -2 -20   4    4.10    1.57
   2  20  -4    6.05    1.47
   2  20  -4    0.36    1.70
  -2  20   4    2.77    1.60
  -2 -20   3    1.31    1.32
  -2  20   3   -1.50    1.61
   2  20  -3    2.49    1.70
  -2  20   2    1.17    1.57
   2  20  -2    0.18    1.56
   2  20  -2    0.19    1.82
  -2 -20   2    1.37    1.29
   2  20  -1   -0.35    1.63
   2  20  -1   -0.94    1.72
  -2  20   1    0.17    1.62
  -2  20   1    1.98    1.89
  -2 -20   1    0.10    0.39
   2  20   0    2.79    1.87
  -2  20   0    3.04    0.85
  -2  20   0    4.06    1.61
  -2  20   0    3.16    1.88
   2  20   1   -1.05    1.49
  -2  20  -1   -0.60    1.81
  -2  20  -1    0.42    0.95
   2  20   1   -0.19    1.68
  -2  20  -1   -0.92    1.59
  -2  20  -2   11.59    2.27
  -2  20  -2    9.74    2.08
  -2  20  -2    6.57    1.31
   2  20   2    9.18    2.03
  -2  20  -3    1.53    1.32
   2  20   3   -0.36    1.55
  -2  20  -4    3.70    1.56
   2  20   4    2.62    1.69
   2 -20   4    4.30    1.55
   2 -20   5    1.29    1.56
  -2  20  -5    0.67    1.45
   2 -20   6    3.93    1.68
  -2  20  -6    0.56    1.49
   2  21  -6    1.95    1.57
  -2  21   6    2.09    1.61
   2  21  -5   -0.63    1.45
  -2 -21   5   -0.99    1.50
  -2  21   5    0.17    1.47
  -2 -21   4   15.04    2.10
   2  21  -4   15.50    2.34
  -2  21   4   14.52    2.14
  -2  21   3    1.06    1.61
   2  21  -3   -1.13    1.63
  -2 -21   3   -0.53    1.36
  -2  21   2   -0.36    1.57
   2  21  -2    0.19    1.49
   2  21  -2    3.05    1.87
  -2 -21   2   -0.58    1.17
  -2  21   2    0.43    2.00
  -2  21   1    5.69    2.07
  -2  21   1    8.71    1.95
   2  21  -1    8.37    2.05
   2  21   0   36.31    3.16
  -2  21   0   33.35    3.13
  -2  21   0   37.39    3.03
   2  21   1   -2.18    1.98
   2  21   1    1.48    1.59
  -2  21  -1    0.39    1.73
  -2  21  -1   -0.85    1.96
  -2  21  -2   10.68    1.61
   2  21   2    9.86    1.99
  -2  21  -2    9.50    2.13
  -2  21  -2   15.11    2.51
   2  21   2   12.07    2.36
  -2  21  -3    1.55    1.35
   2  21   3    3.83    1.76
  -2  21  -4   16.95    2.08
   2 -21   5   64.84    3.61
  -2  21  -5   63.22    3.63
   2 -21   6   -1.09    1.67
  -2 -22   6    1.48    1.61
  -2  22   5   -1.64    1.62
  -2 -22   5    0.17    1.63
   2  22  -5   -1.45    1.57
  -2  22   4    0.37    1.54
  -2 -22   4    1.67    1.53
  -2  22   3    0.56    1.63
  -2  22   2    3.80    1.76
   2  22  -2    3.45    2.06
   2  22  -1   -0.64    1.84
  -2  22   1   -0.39    1.61
  -2  22   0    5.99    2.12
  -2  22   0    2.17    1.78
   2  22   1    3.78    2.05
   2  22   2   -1.49    1.78
  -3   0  12   14.37    2.18
   3   0 -12    9.89    2.05
   3   0 -11   49.47    3.20
  -3   0  11   50.02    3.13
   3   0 -10  102.02    4.24
  -3   0  10   97.79    4.16
  -3   0   9   21.10    2.01
   3   0  -9   18.66    1.94
   3   0  -8    1.96    0.74
  -3   0   8    0.70    1.15
   3   0  -8    3.58    1.29
   3   0  -7  174.94    5.00
   3   0  -7  172.60    3.85
  -3   0   7  175.27    5.07
   3   0  -6  165.35    4.57
   3   0  -6  156.69    3.32
  -3   0   6  154.27    4.49
   3   0  -5   68.31    1.64
  -3   0   5   75.41    2.80
   3   0  -5   85.13    2.81
  -3   0   5   91.21    2.93
  -3   0   4    2.30    0.71
   3   0  -4    2.11    0.74
  -3   0   4    0.70    0.70
  -3   0   3   32.67    1.53
  -3   0   3   30.22    1.33
  -3   0   2  451.22    7.78
  -3   0   2  451.09    8.10
  -3   0   1  754.49   12.88
  -3   0   1  736.78   12.39
  -3   0   0  970.79   16.93
  -3   0  -1  257.37    4.73
  -3   0  -2 1016.93   17.54
  -3   0  -3 1060.61   19.33
  -3   0  -3 1064.27   18.73
  -3   0  -4 1315.21   24.03
  -3   0  -4 1349.89   23.62
  -3   0  -5 1339.07   24.23
  -3   0  -5 1358.01   24.67
  -3   0  -6   19.33    1.84
  -3   0  -6   23.46    2.02
  -3   0  -7  173.23    5.67
  -3   0  -7  177.55    5.60
  -3   0  -8  828.69   17.26
  -3   0  -8  808.94   17.00
  -3   0  -9  340.44    9.38
  -3   0  -9  356.37    9.31
  -3   0 -10   74.98    4.02
  -3   0 -10   68.12    3.79
  -3   0 -11    1.88    1.58
  -3  -1  12    3.44    1.65
  -3   1  12    3.73    1.68
   3  -1 -12    2.80    1.72
   3   1 -12    2.03    1.62
  -3  -1  11    1.82    1.65
  -3   1  11    0.16    1.38
   3  -1 -11    2.06    1.59
   3   1 -11   -0.17    1.51
  -3  -1  10   23.41    2.34
  -3   1  10   21.29    2.16
   3   1 -10   18.86    2.20
   3  -1 -10   20.91    2.24
  -3  -1   9    0.68    1.38
  -3   1   9    0.76    1.26
   3   1  -9    3.24    1.39
   3  -1  -9    2.02    1.30
   3  -1  -8   13.35    1.02
   3  -1  -8   11.81    1.54
   3   1  -8   14.47    1.71
  -3  -1   8   13.73    1.68
  -3   1   8   12.77    1.60
  -3  -1   7    8.50    1.45
   3  -1  -7    7.42    1.41
  -3   1   7    6.41    1.61
   3   1  -7    7.27    1.36
   3  -1  -7    6.28    0.79
  -3   1   7   10.05    1.42
  -3   1   6   23.34    1.89
   3   1  -6   29.31    1.93
  -3   1   6   26.15    1.80
  -3  -1   6   29.30    1.95
   3  -1  -6   31.43    1.92
   3  -1  -6   23.32    0.98
   3  -1  -5    7.38    1.04
   3   1  -5    6.67    1.14
  -3   1   5    5.74    1.04
  -3  -1   5    6.30    1.11
  -3   1   5    5.16    1.13
  -3   1   4   12.68    1.13
  -3   1   4   14.54    1.13
   3   1  -4   14.82    1.21
  -3   1   3  108.62    2.98
  -3   1   3  108.51    2.83
   3   1  -3  106.37    2.76
   3   1  -2   37.27    1.21
  -3   1   2   36.95    1.26
   3   1  -2   37.56    1.10
  -3   1   2   35.67    0.95
  -3  -1   2   35.38    1.07
  -3  -1   1  206.32    4.17
  -3  -1   0   13.47    0.94
  -3  -1  -1   73.39    2.33
   3  -1   1   71.73    1.77
  -3   1  -2  278.88    5.57
  -3   1  -3    7.04    0.83
  -3   1  -3    8.62    1.04
  -3  -1  -3    5.94    0.93
  -3   1  -4   31.78    1.72
  -3  -1  -4   29.74    1.76
  -3   1  -4   29.55    1.87
  -3  -1  -5  101.58    3.61
  -3   1  -5  101.77    3.45
  -3  -1  -5  100.82    3.73
  -3   1  -5  103.78    3.74
  -3   1  -6   74.82    3.13
  -3  -1  -6   75.33    3.41
  -3   1  -6   73.09    3.29
  -3  -1  -6   79.13    3.31
  -3  -1  -7   12.58    1.64
  -3   1  -7   10.83    1.59
  -3   1  -7   14.17    1.78
  -3  -1  -7    7.63    1.55
  -3   1  -8    3.93    1.61
  -3  -1  -8    4.50    1.58
  -3   1  -8    3.70    1.73
  -3  -1  -8   -0.16    1.64
  -3   1  -9   31.87    2.63
  -3  -1  -9   28.72    2.69
  -3  -1  -9   28.98    2.47
  -3   1 -10    8.49    1.84
  -3  -1 -10    9.51    1.88
  -3  -1 -10    7.14    1.78
  -3   1 -10   11.10    2.06
  -3   1 -11    0.83    1.59
  -3  -1 -11   -1.66    1.84
  -3  -1 -11    0.20    1.61
  -3   2  13   -0.18    1.60
   3  -2 -12   13.45    2.18
  -3   2  12   14.86    2.13
   3   2 -12   11.58    2.19
  -3  -2  11   32.54    2.73
   3  -2 -11   37.19    2.74
   3   2 -11   31.18    2.74
  -3   2  11   34.78    2.55
   3  -2 -10   68.22    3.40
  -3  -2  10   64.60    3.55
  -3   2  10   64.97    3.30
   3   2 -10   69.76    3.60
  -3  -2   9   18.60    2.10
  -3   2   9   18.79    1.88
   3  -2  -9   20.24    1.94
   3   2  -9   22.27    2.13
  -3   2   8    0.54    1.10
   3   2  -8   -0.82    1.35
  -3   2   8   -0.28    1.41
   3  -2  -8    0.32    1.10
   3  -2  -8   -0.56    0.63
   3   2  -8   -0.74    1.31
  -3  -2   8   -1.26    1.36
   3   2  -7  181.35    5.30
   3   2  -7  181.99    5.40
  -3  -2   7  190.79    5.41
  -3   2   7  172.19    5.41
  -3   2   7  188.07    5.09
   3  -2  -7  198.21    5.16
   3  -2  -7  176.84    3.84
   3   2  -6  525.58   10.98
  -3  -2   6  553.19   11.12
  -3   2   6  531.80   10.64
   3  -2  -6  513.97    9.19
   3  -2  -6  551.06   10.69
  -3   2   6  530.34   11.08
   3  -2  -5  485.27    9.54
  -3   2   5  465.87    9.53
  -3  -2   5  481.80    9.98
  -3   2   5  489.02    9.93
   3   2  -4  138.02    2.90
  -3   2   4  151.25    3.84
   3   2  -4  142.90    3.91
  -3   2   4  142.60    3.66
  -3   2   3  312.07    6.39
  -3   2   3  318.53    6.51
   3   2  -3  313.70    5.75
   3   2  -3  325.57    6.35
  -3  -2   2  881.22   15.12
   3   2  -2  889.30   15.12
   3   2  -2  882.61   15.20
  -3  -2   1  784.13   13.20
   3   2  -1  790.27   13.79
  -3  -2   1  797.78   13.80
   3   2   0 1192.58   20.70
  -3  -2   0 1192.64   20.71
  -3   2   0 1199.20   20.05
   3  -2   1   25.12    0.99
   3   2   1   23.55    0.85
   3   2   2  213.75    4.40
  -3  -2  -3  518.73   10.38
  -3   2  -3  523.46   10.02
   3   2   3  522.38    9.86
  -3   2  -4  661.26   13.46
  -3  -2  -4  692.75   13.33
   3   2   4  684.68   12.95
  -3   2  -4  694.41   13.10
  -3  -2  -5  362.75    8.33
  -3  -2  -5  375.99    8.77
  -3   2  -5  357.35    8.52
  -3   2  -5  385.93    8.34
  -3   2  -6   59.53    2.80
  -3   2  -6   54.97    2.88
  -3  -2  -6   60.05    2.99
  -3  -2  -6   57.16    2.80
  -3   2  -7    1.15    1.21
  -3  -2  -7    1.56    1.20
  -3  -2  -7    0.15    1.28
  -3   2  -7   -0.13    1.23
  -3   2  -8  365.11    9.17
  -3  -2  -8  347.15    9.33
  -3  -2  -8  372.25    9.16
  -3   2  -8  349.66    9.23
  -3   2  -9  314.54    8.85
  -3  -2  -9  321.80    8.96
  -3   2  -9  319.03    8.83
  -3  -2  -9  319.27    8.59
  -3   2 -10  120.30    5.15
  -3  -2 -10  129.27    5.27
  -3   2 -10  120.94    5.16
  -3  -2 -10  120.09    4.92
  -3  -2 -11   19.32    2.39
  -3  -2 -11   18.04    2.45
  -3  -3  12   -0.77    1.63
  -3   3  12    0.31    1.44
   3  -3 -12    0.99    1.57
   3   3 -12   -0.58    1.70
  -3  -3  11    2.12    1.72
  -3   3  11    1.86    1.43
   3   3 -11    3.18    1.77
   3   3 -11    0.19    0.32
   3  -3 -11    1.93    1.55
  -3  -3  10    1.62    1.60
  -3   3  10    0.65    1.41
   3  -3 -10    4.92    1.62
   3   3 -10    2.56    1.76
  -3   3   9   12.36    2.01
  -3  -3   9   11.42    1.75
  -3   3   9   13.24    1.68
   3   3  -9    9.62    1.75
   3  -3  -9   11.64    1.70
   3   3  -9   10.02    1.83
   3   3  -8    0.55    1.31
   3  -3  -8    1.71    0.65
  -3   3   8    0.71    1.43
   3  -3  -8    1.55    1.08
  -3  -3   8    1.31    1.28
  -3   3   8    1.83    1.15
   3   3  -8    1.79    1.23
   3   3  -7   65.36    3.11
  -3  -3   7   70.41    3.16
  -3   3   7   61.98    2.70
   3  -3  -7   61.82    1.85
  -3   3   7   57.50    3.06
   3  -3  -7   67.98    2.80
   3   3  -6   70.59    3.01
  -3  -3   6   73.36    3.08
   3  -3  -6   74.32    2.67
  -3   3   6   71.48    2.67
   3  -3  -6   65.54    1.72
  -3   3   6   69.50    3.02
  -3   3   5   39.61    2.17
   3   3  -5   43.67    2.23
   3  -3  -5   43.58    1.87
  -3   3   5   44.31    1.93
  -3   3   4  108.41    3.23
   3   3  -4  107.86    3.35
   3   3  -4  108.82    2.55
  -3   3   4  113.22    3.05
  -3   3   3  180.97    3.96
   3   3  -3  177.61    3.94
   3   3  -3  178.76    3.53
  -3  -3   2   50.92    1.56
  -3  -3   2   51.09    1.59
   3   3  -2   50.53    1.56
   3   3  -1   74.03    2.11
  -3  -3   1   76.44    2.15
  -3  -3   0   47.14    1.73
   3   3   0   43.75    1.69
  -3   3   0   44.21    1.40
   3   3   1    8.07    0.93
   3  -3   1    9.86    0.74
   3  -3   2    2.71    0.68
   3   3   2    1.41    0.54
  -3  -3  -3    8.35    1.01
   3   3   3    6.45    0.82
  -3  -3  -4   29.02    1.75
  -3   3  -4   32.70    1.79
   3   3   4   31.54    1.70
  -3   3  -5   13.34    1.44
  -3  -3  -5   10.44    1.23
  -3   3  -5   13.19    1.57
  -3  -3  -5   14.99    1.67
   3   3   5   12.58    1.32
  -3   3  -6    2.88    1.27
  -3  -3  -6    4.69    1.21
   3   3   6    4.05    1.18
  -3   3  -6    2.53    1.24
  -3  -3  -6    4.43    1.34
  -3   3  -7    2.91    1.40
  -3   3  -7    2.95    1.34
  -3  -3  -7    2.53    1.25
  -3  -3  -7    2.68    1.34
  -3  -3  -8    1.57    1.50
  -3   3  -8    2.10    1.60
  -3  -3  -8    0.82    1.74
  -3   3  -8    2.94    1.60
  -3  -3  -9    7.26    1.72
  -3   3  -9    8.38    1.91
  -3  -3  -9    3.57    1.73
  -3   3  -9    9.83    1.95
  -3   3 -10   -0.19    1.41
  -3  -3 -10    2.90    1.67
  -3   3 -10   -0.80    1.64
  -3  -3 -10    1.05    1.35
  -3  -3 -11    9.08    2.02
  -3  -3 -11    3.05    1.66
  -3   4  12   16.80    2.10
   3  -4 -12   12.74    2.09
   3   4 -11   56.14    3.53
  -3  -4  11   56.97    3.53
   3  -4 -11   58.96    3.23
  -3   4  11   63.06    3.18
   3  -4 -10  121.07    4.34
   3   4 -10  118.09    4.97
   3   4 -10  110.21    4.65
  -3   4  10   96.87    4.74
  -3  -4  10  106.67    4.59
  -3   4  10  109.18    4.13
   3   4  -9    8.90    1.79
   3   4  -9    6.22    1.73
  -3   4   9    6.97    1.44
   3  -4  -9    8.09    1.49
  -3  -4   9    8.48    1.79
  -3   4   9    4.41    1.78
   3   4  -8   36.90    2.62
   3  -4  -8   33.53    2.12
  -3   4   8   34.17    2.60
   3   4  -8   37.47    2.56
  -3  -4   8   32.65    2.40
   3  -4  -8   33.74    1.50
  -3   4   8   31.46    2.04
   3  -4  -7  278.55    6.45
  -3   4   7  261.57    6.35
   3   4  -7  274.78    7.07
   3   4  -7  277.77    7.17
  -3  -4   7  270.17    7.07
   3  -4  -7  267.63    5.37
  -3   4   7  278.18    7.22
   3  -4  -6  220.68    3.83
   3  -4  -6  209.09    2.35
  -3   4   6  215.43    3.84
   3   4  -6  211.42    4.56
  -3   4   5  336.15    6.97
  -3   4   5  339.08    7.60
   3   4  -5  323.98    7.59
  -3   4   4    6.31    0.46
   3   4  -4    5.81    0.69
  -3   4   4    7.03    0.83
  -3   4   3    5.11    0.45
   3   4  -3    6.79    0.71
  -3   4   3    4.91    0.72
  -3  -4   2  526.12    9.64
   3   4  -2  519.36    9.61
  -3  -4   2  531.67    9.60
  -3  -4   1 1222.15   21.05
   3   4  -1 1208.92   20.99
   3   4   0  283.01    5.92
  -3  -4   0  282.29    5.95
  -3   4   0  279.09    5.57
  -3   4  -1  454.13    9.08
   3   4   1  466.09    9.14
  -3   4  -2  164.76    4.34
   3  -4   2  166.51    4.00
   3   4   3  686.09   12.60
   3  -4   3  678.03   12.89
  -3  -4  -4 1064.04   19.78
   3   4   4 1104.27   19.60
  -3   4  -5  326.32    7.60
  -3  -4  -5  321.55    7.45
  -3  -4  -5  327.56    7.94
   3   4   5  321.08    7.34
  -3   4  -6   16.66    1.82
  -3  -4  -6   12.74    1.53
   3   4   6   12.42    1.54
  -3  -4  -6   13.60    1.70
  -3   4  -6   11.69    1.69
  -3   4  -7  199.84    5.97
  -3  -4  -7  194.49    6.08
   3   4   7  181.63    5.63
  -3   4  -7  198.90    6.17
  -3  -4  -7  189.80    5.63
  -3   4  -8  465.96   11.25
  -3   4  -8  469.90   11.06
  -3  -4  -8  450.37   11.12
  -3  -4  -8  452.64   10.63
  -3   4  -9  250.54    7.55
  -3  -4  -9  257.50    7.73
  -3   4  -9  254.91    7.78
  -3  -4  -9  252.22    7.27
  -3   4 -10   44.93    3.22
  -3   4 -10   45.27    3.36
  -3  -4 -10   48.18    3.08
  -3  -4 -10   48.10    3.30
  -3  -4 -11    4.08    1.81
  -3   5  12   14.76    1.91
  -3   5  11    2.09    1.34
   3   5 -11   -0.40    1.78
  -3  -5  11    1.87    1.78
   3  -5 -11    0.14    1.43
   3   5 -11    2.05    1.84
  -3  -5  10   30.52    2.80
   3   5 -10   26.73    2.65
   3  -5 -10   28.96    2.30
   3   5 -10   28.44    2.83
  -3   5  10   26.32    2.81
  -3   5  10   26.45    2.14
  -3  -5   9   27.06    2.47
   3   5  -9   21.43    2.37
   3  -5  -9   26.34    2.03
   3   5  -9   23.68    2.39
  -3   5   9   23.35    1.89
  -3   5   9   26.02    2.46
   3   5  -8   47.71    2.89
   3  -5  -8   42.43    2.26
   3   5  -8   44.48    2.77
  -3  -5   8   41.37    2.80
  -3   5   8   43.43    2.26
  -3   5   8   47.22    2.99
   3  -5  -7    0.16    0.98
   3   5  -7    1.73    1.38
   3   5  -7    2.93    1.39
  -3   5   7    1.93    1.43
  -3   5   7    1.10    0.97
   3  -5  -7    1.24    0.73
  -3  -5   7    0.76    1.02
   3  -5  -6   51.17    1.45
  -3   5   6   48.97    2.60
   3   5  -6   47.47    2.54
  -3   5   6   52.50    2.08
  -3   5   5   62.54    2.21
   3   5  -4   43.56    1.65
  -3   5   4   42.74    1.31
  -3   5   4   42.57    1.64
  -3   5   3   12.00    0.69
  -3  -5   3   11.97    1.13
   3   5  -3   14.61    1.00
  -3   5   3   14.64    0.93
  -3  -5   2   28.61    1.35
   3   5  -2   29.93    1.37
  -3  -5   1    8.87    0.96
   3   5  -1    8.20    0.80
   3   5  -1    7.34    0.90
   3   5   0  113.29    3.12
  -3   5   0  112.62    2.93
  -3  -5   0  114.78    3.20
  -3   5  -1  233.76    5.41
   3   5   1  240.61    5.52
  -3   5  -1  241.70    5.22
   3  -5   2  413.00    8.27
  -3   5  -2  407.81    8.53
   3  -5   3   50.54    2.19
  -3   5  -3   50.75    2.35
  -3  -5  -4   18.62    1.47
   3   5   4   21.10    1.50
   3  -5   4   22.86    1.74
  -3  -5  -5   82.66    3.01
  -3  -5  -5   72.78    3.21
   3   5   5   79.19    3.00
  -3  -5  -6  237.69    6.71
  -3   5  -6  244.29    6.56
   3   5   6  243.77    6.36
  -3  -5  -6  238.63    6.23
  -3  -5  -7  135.24    4.98
   3   5   7  138.27    4.71
  -3   5  -7  127.27    4.85
  -3   5  -7  134.61    4.78
  -3  -5  -7  129.28    4.45
  -3  -5  -8   17.68    2.00
   3   5   8   12.18    1.96
  -3   5  -8   20.57    2.37
  -3  -5  -8   13.41    2.03
  -3   5  -8   16.34    2.13
  -3   5  -9   13.94    2.16
  -3  -5  -9   15.11    2.05
  -3   5  -9   16.39    2.25
  -3  -5  -9   12.26    1.84
  -3   5 -10    6.25    2.01
  -3   5 -10   10.16    2.08
  -3  -5 -10   11.05    1.97
  -3  -5 -10   10.06    1.79
  -3  -5 -11    9.20    1.89
  -3   6  11    9.68    2.27
   3  -6 -11   13.65    1.88
   3   6 -11   12.44    2.24
   3   6 -11   14.52    2.40
  -3  -6  11   11.38    2.16
   3   6 -10   50.11    3.52
   3   6 -10   54.97    3.43
   3  -6 -10   60.19    2.89
  -3   6  10   46.02    3.47
  -3  -6  10   56.82    3.45
  -3   6  10   57.61    2.80
  -3   6   9   23.70    2.49
  -3   6   9   20.23    1.76
   3   6  -9   23.59    2.42
   3   6  -9   23.79    2.46
  -3  -6   9   27.88    2.51
   3  -6  -9   23.52    1.86
   3   6  -8    2.34    1.45
  -3   6   8    1.38    0.96
   3   6  -8    3.96    1.57
  -3   6   8    3.79    1.71
   3  -6  -8    2.09    1.06
  -3  -6   8    1.75    1.37
   3  -6  -7   49.67    1.78
   3   6  -7   55.04    2.98
  -3   6   7   48.21    2.15
  -3   6   7   55.23    3.08
   3   6  -7   52.51    2.88
   3  -6  -7   44.94    2.11
  -3   6   6  207.72    5.85
   3   6  -6  200.50    5.67
  -3   6   6  210.39    4.87
  -3   6   5  695.86   12.32
  -3   6   5  688.47   12.62
   3   6  -4  250.75    5.46
  -3   6   4  251.46    5.19
  -3   6   4  250.13    4.99
  -3  -6   4  256.02    6.02
   3   6  -3  219.49    5.43
  -3   6   3  225.16    4.61
  -3   6   3  228.58    4.70
  -3  -6   3  229.29    5.23
   3   6  -3  227.35    5.02
   3   6  -2  957.50   17.21
  -3  -6   2  978.30   17.14
  -3  -6   1 1795.70   31.00
   3   6  -1 1789.05   30.88
   3   6  -1 1821.95   30.61
  -3   6   0  329.61    6.76
   3   6   0  320.32    6.91
  -3   6   0  338.41    6.80
  -3  -6   0  328.75    7.03
  -3   6  -1   12.10    1.11
   3   6   1   13.38    1.17
  -3   6  -1   14.65    1.22
  -3   6  -2  206.36    5.21
   3  -6   2  212.76    5.07
   3  -6   3 1146.84   20.75
  -3   6  -3 1143.30   21.07
  -3  -6  -4 1300.80   23.21
   3  -6   4 1312.35   23.63
   3   6   4 1284.83   23.22
  -3  -6  -4 1292.20   23.92
  -3   6  -4 1299.79   23.91
  -3  -6  -5    8.78    1.14
   3   6   5    7.26    1.16
  -3  -6  -5    7.20    1.29
   3  -6   5    7.62    1.36
  -3  -6  -6   24.18    2.12
   3  -6   6   32.74    2.33
  -3   6  -6   29.77    2.23
   3   6   6   26.43    2.03
  -3  -6  -6   27.27    1.95
  -3  -6  -7   51.99    3.10
  -3  -6  -7   48.78    2.72
  -3   6  -7   54.35    3.08
   3   6   7   47.86    2.82
   3  -6   8  137.56    5.19
  -3  -6  -8  151.35    5.46
   3   6   8  144.05    5.17
  -3   6  -8  145.44    5.43
  -3  -6  -8  145.37    4.89
  -3   6  -8  153.07    5.47
  -3   6  -9  202.56    6.76
  -3   6  -9  211.38    7.00
  -3  -6  -9  207.66    6.81
  -3  -6  -9  206.87    6.27
  -3   6 -10   51.52    3.47
  -3  -6 -10   52.48    3.48
  -3  -6 -10   58.16    3.23
  -3  -7  11    2.18    1.73
  -3   7  11    1.05    1.18
   3  -7 -11    2.66    1.36
   3   7 -11    1.57    1.70
  -3   7  11    1.07    1.99
   3   7 -11    0.21    1.79
   3   7 -10   14.02    2.43
  -3  -7  10   10.26    2.08
  -3   7  10   11.90    1.63
   3  -7 -10   11.71    1.61
   3   7 -10   12.53    2.24
  -3   7  10   11.59    2.31
  -3   7   9   14.69    1.52
  -3  -7   9   13.02    2.03
  -3   7   9   13.61    2.24
   3   7  -9   12.64    2.08
   3   7  -9   10.90    2.02
   3  -7  -9   13.95    1.54
   3   7  -8   17.48    2.14
  -3   7   8   19.14    2.25
   3   7  -8   14.91    1.94
  -3   7   8   18.57    1.46
  -3   7   7   97.49    4.13
   3   7  -7  108.99    4.18
  -3   7   7   99.25    3.09
  -3   7   6   80.76    2.42
  -3   7   6   76.55    2.46
  -3   7   5    6.37    0.90
  -3  -7   5    6.50    1.44
  -3   7   5    6.49    0.88
   3   7  -4  142.06    4.28
   3   7  -4  142.05    3.77
  -3  -7   4  148.16    4.25
  -3   7   4  145.59    3.31
  -3   7   4  140.76    3.37
  -3   7   3  234.81    4.92
  -3   7   3  234.34    4.74
   3   7  -3  226.06    5.62
  -3  -7   3  236.91    5.50
   3   7  -3  230.85    5.28
   3   7  -2  354.65    7.34
   3   7  -1    5.44    1.03
   3   7  -1    3.94    0.94
  -3  -7   1    4.13    0.98
  -3   7   0   10.87    0.95
  -3   7   0    7.42    0.98
   3   7   0    9.99    1.03
  -3   7  -1  316.22    6.78
   3   7   1  318.51    6.95
  -3   7  -1  297.10    6.67
  -3   7  -2  152.38    4.29
  -3   7  -3   98.39    3.49
   3  -7   3   95.09    3.29
  -3  -7  -4   47.70    2.20
   3  -7   4   47.33    2.44
   3  -7   4   47.21    2.53
   3   7   4   45.71    2.52
  -3   7  -4   45.81    2.56
  -3  -7  -4   50.10    2.56
  -3   7  -5    4.10    1.21
   3   7   5    5.21    1.11
  -3  -7  -5    5.46    0.97
   3  -7   5    3.80    1.17
   3  -7   5    3.01    1.23
  -3  -7  -5    7.86    1.31
   3  -7   6   59.30    3.08
  -3  -7  -6   62.02    3.18
   3  -7   6   62.87    3.17
   3   7   6   64.06    3.00
  -3  -7  -6   62.39    2.76
  -3  -7  -7   96.54    4.23
  -3   7  -7  101.05    4.24
  -3  -7  -7   95.14    3.67
   3   7   7   99.46    4.00
   3  -7   7   97.73    4.22
  -3  -7  -8    5.59    1.49
  -3   7  -8    7.46    1.83
   3  -7   8    5.66    1.75
   3   7   8    6.61    1.78
  -3  -7  -8    9.82    1.82
   3  -7   9   -0.91    1.60
  -3   7  -9    0.59    1.79
  -3   7  -9    3.29    1.79
   3   7   9    2.02    1.71
   3  -7   9    1.66    1.68
  -3  -7  -9    2.19    1.39
  -3  -7  -9    0.98    1.30
  -3   7 -10    0.20    1.63
   3  -7  10    0.81    1.81
  -3  -7 -10    1.77    1.56
  -3  -7 -10    1.39    1.34
  -3  -8  11   34.38    3.15
   3   8 -11   32.04    3.15
   3   8 -10   81.92    4.38
  -3   8  10   75.09    3.01
  -3   8  10   71.28    4.13
   3   8 -10   76.32    4.06
  -3  -8  10   77.60    4.17
  -3  -8   9    2.93    1.80
  -3   8   9    3.59    1.78
  -3   8   9    3.30    1.08
   3   8  -9    5.20    1.87
   3   8  -9    3.51    1.81
  -3   8   8   23.96    2.42
   3   8  -8   24.17    2.39
  -3   8   8   27.98    1.66
  -3   8   7  107.99    4.45
   3   8  -7  116.60    4.43
  -3   8   7  106.03    3.11
  -3  -8   7  105.77    4.35
  -3   8   6   38.25    1.71
  -3   8   6   37.01    1.51
  -3  -8   6   37.66    2.54
  -3  -8   5  114.91    4.05
   3   8  -5  112.90    3.97
  -3   8   5  119.44    3.17
  -3   8   5  121.34    2.92
  -3  -8   5  122.82    4.16
  -3   8   4   11.70    1.00
  -3  -8   4   10.21    1.40
  -3   8   4   11.95    0.82
   3   8  -4   10.98    1.18
   3   8  -4   13.27    1.55
   3   8  -3   31.34    1.68
  -3   8   3   27.79    1.40
   3   8  -3   27.23    1.79
  -3   8   3   29.90    1.19
  -3  -8   3   30.00    1.78
   3   8  -2  294.84    6.50
  -3   8   1  597.10   11.01
  -3  -8   1  608.01   11.73
   3   8  -1  595.99   11.60
  -3   8   0    9.02    1.14
  -3   8   0   11.32    0.99
   3   8   0   10.98    1.12
   3   8   1   87.89    3.09
  -3   8  -1   89.01    3.00
  -3   8  -1   83.92    2.84
  -3   8  -2  116.36    3.64
   3  -8   3  546.56   11.28
  -3   8  -3  553.61   11.45
  -3  -8  -4  874.40   16.30
   3  -8   4  858.58   16.98
   3   8   4  889.91   17.27
   3  -8   4  888.27   17.03
  -3  -8  -4  885.88   17.33
  -3   8  -4  888.47   17.29
  -3  -8  -5   38.46    1.98
   3  -8   5   36.03    2.29
   3   8   5   39.19    2.26
  -3  -8  -5   38.18    2.44
   3  -8   5   39.11    2.40
  -3   8  -5   39.24    2.44
   3   8   6   21.07    1.98
   3  -8   6   23.54    2.15
   3  -8   6   23.08    2.19
  -3   8  -6   26.02    2.27
  -3  -8  -6   22.44    2.14
  -3  -8  -6   21.59    1.75
   3  -8   7  146.27    5.20
   3  -8   7  142.11    5.20
  -3  -8  -7  135.50    5.14
  -3   8  -7  147.68    5.25
  -3  -8  -7  145.38    4.60
   3   8   7  142.94    4.97
  -3  -8  -8  160.25    5.08
  -3   8  -8  153.53    5.67
   3   8   8  161.90    5.55
   3  -8   8  168.20    5.89
  -3  -8  -8  153.09    5.62
  -3   8  -9  136.45    5.44
  -3  -8  -9  133.63    4.70
  -3  -8  -9  136.36    5.40
   3   8   9  140.18    5.39
   3  -8   9  130.98    5.39
  -3  -8 -10   18.47    2.38
  -3  -8 -10   20.36    2.15
  -3  -9  10   17.83    2.60
  -3   9  10   16.47    1.57
  -3   9  10   18.29    2.63
  -3  -9  10   15.40    2.59
   3   9 -10   15.68    2.32
   3   9 -10   18.95    2.70
  -3   9   9   35.44    1.89
  -3   9   9   34.02    3.02
   3   9  -9   32.81    2.95
  -3  -9   9   33.17    2.97
  -3   9   8   90.23    4.26
   3   9  -8   95.64    4.31
  -3  -9   8   89.85    4.20
  -3   9   8   90.62    2.84
  -3   9   7    1.11    0.72
  -3  -9   7    1.02    1.48
  -3  -9   7   -0.29    1.48
  -3   9   6   57.35    2.25
  -3  -9   6   50.86    2.98
   3   9  -6   59.93    3.04
  -3  -9   6   54.82    2.97
  -3   9   6   57.61    1.84
  -3  -9   5   36.09    2.39
   3   9  -5   34.51    2.04
   3   9  -5   36.48    2.29
  -3   9   5   36.41    1.75
  -3   9   5   38.01    1.33
  -3  -9   5   35.59    2.35
   3   9  -4  117.78    3.56
   3   9  -4  113.95    3.84
  -3   9   4  111.66    2.53
  -3  -9   4  115.75    3.85
  -3   9   4  119.14    3.21
   3   9  -3  121.23    3.65
  -3   9   3  128.38    3.40
   3   9  -3  122.69    3.81
  -3  -9   3  116.48    3.71
  -3   9   3  120.68    2.73
  -3   9   2   59.92    1.84
   3   9  -2   61.11    2.49
  -3   9   1   95.46    2.65
   3   9  -1  100.86    3.28
  -3   9   0    8.38    0.91
   3   9   0    6.72    1.11
  -3   9   0    8.09    1.13
  -3   9  -1   99.84    3.38
   3   9   1   98.31    3.38
  -3   9  -1  102.15    3.15
  -3   9  -2  400.40    8.81
  -3   9  -2  399.17    8.61
   3  -9   3  101.05    3.66
  -3   9  -3  104.06    3.69
  -3   9  -4   18.64    1.92
   3  -9   4   17.57    1.80
   3  -9   4   15.56    1.75
   3   9   4   17.89    1.89
  -3  -9  -4   19.29    1.44
  -3   9  -5    3.38    1.21
  -3  -9  -5    3.40    1.19
   3  -9   5    2.28    1.22
  -3  -9  -5    3.98    0.95
   3  -9   5    2.51    1.19
   3   9   5    2.55    1.26
   3   9   6  217.12    6.19
  -3  -9  -6  214.88    6.50
   3  -9   6  211.03    6.36
  -3   9  -6  210.85    6.56
  -3  -9  -6  213.62    5.54
   3   9   7  148.70    5.14
   3  -9   7  145.68    5.28
  -3   9  -7  139.58    5.33
   3  -9   7  144.22    5.30
  -3  -9  -7  147.90    4.58
  -3  -9  -7  147.13    5.36
  -3  -9  -8   19.12    1.87
  -3  -9  -8   19.96    2.29
   3   9   8   18.48    2.19
   3  -9   8   18.76    2.41
   3  -9   8   22.80    2.56
  -3   9  -8   18.82    2.34
  -3  -9  -9   17.57    2.18
  -3   9  -9   21.60    2.49
   3  -9   9   16.68    2.46
   3   9   9   18.02    2.32
  -3  -9  -9   18.83    1.97
   3  10 -10   20.94    2.75
  -3  10  10   21.87    2.77
  -3 -10  10   15.94    2.62
   3  10  -9    7.24    2.09
  -3  10   9    6.71    1.09
  -3  10   9    7.54    2.15
  -3 -10   9   10.51    2.24
  -3  10   8    0.05    0.74
  -3 -10   8   -0.33    1.61
  -3 -10   8    1.35    1.71
   3  10  -8    1.84    1.75
  -3  10   8    0.51    1.60
  -3 -10   7   40.83    2.90
  -3  10   7   39.58    2.01
   3  10  -7   38.26    2.69
  -3 -10   7   44.15    2.94
  -3  10   7   38.68    1.53
  -3  10   6  118.53    3.44
   3  10  -6  108.95    4.17
  -3 -10   6  112.16    4.33
  -3 -10   6  114.76    4.35
  -3  10   6  106.23    2.56
   3  10  -5  292.32    6.82
  -3 -10   5  298.07    7.34
  -3  10   5  290.02    6.32
  -3 -10   5  293.21    7.44
   3  10  -5  299.53    7.36
  -3  10   5  270.88    5.23
   3  10  -4  107.08    3.54
  -3  10   4   99.64    2.21
  -3 -10   4  109.38    3.83
  -3  10   4  108.27    3.20
  -3 -10   4  101.71    3.76
   3  10  -4  111.45    3.86
  -3  10   3   26.24    1.02
  -3  10   3   27.60    1.03
  -3  10   3   28.47    1.66
   3  10  -3   29.25    1.89
   3  10  -3   27.22    1.84
  -3  10   2  347.75    6.61
   3  10  -2  344.93    7.73
   3  10  -1  678.86   13.26
  -3  10   1  673.56   12.28
  -3  10   0  153.36    3.91
  -3 -10   0  153.86    4.55
  -3  10   0  143.96    4.37
   3  10   0  159.60    4.49
  -3  10  -1    5.58    1.01
  -3  10  -1    5.23    1.27
   3  10   1    3.83    1.15
  -3  10  -2   35.26    2.02
  -3  10  -2   39.93    2.42
  -3 -10  -3   -0.12    0.34
  -3  10  -3  238.28    4.88
  -3 -10  -4  302.35    6.67
   3 -10   4  299.56    7.47
   3  10   4  286.11    7.61
  -3  10  -4  305.91    7.67
   3 -10   4  306.95    7.62
  -3 -10  -4  305.41    7.82
   3 -10   5    0.93    1.27
  -3 -10  -5    1.85    1.18
  -3 -10  -5    2.17    0.79
   3  10   5    1.95    1.33
   3 -10   5   -0.65    1.15
  -3  10  -5    2.76    1.20
   3  10   6   12.68    1.82
  -3 -10  -6   15.54    2.02
  -3 -10  -6   13.54    1.44
   3 -10   6   11.94    1.84
   3 -10   6    9.80    1.76
  -3  10  -6   15.52    2.06
  -3 -10  -7    8.02    1.41
  -3 -10  -7   10.64    1.95
   3  10   7    9.16    1.88
   3 -10   7   11.56    2.08
   3 -10   7    7.98    1.77
  -3  10  -7   13.36    2.05
   3 -10   8   47.89    3.29
  -3  10  -8   46.33    3.31
  -3  10  -8   53.78    3.47
  -3 -10  -8   56.98    3.40
  -3 -10  -8   53.61    2.70
   3 -10   8   53.32    3.47
   3  10   8   59.47    3.43
   3 -10   9   65.21    3.90
  -3  10  -9   57.62    3.92
  -3 -10  -9   68.75    3.88
   3 -10   9   73.80    4.12
  -3  10  -9   68.80    3.94
   3  10   9   65.40    3.74
  -3 -10  -9   71.61    3.22
  -3 -11  10    8.69    2.30
  -3  11  10    5.33    2.03
   3  11 -10    4.79    2.07
  -3 -11   9   14.44    2.28
  -3  11   9   15.65    1.15
  -3 -11   9   15.29    2.33
   3  11  -9   15.39    2.29
  -3  11   9   15.11    2.46
  -3  11   8   40.71    1.52
  -3 -11   8   43.99    3.16
   3  11  -8   42.48    3.02
   3  11  -8   49.59    3.25
  -3 -11   8   40.86    3.03
  -3  11   7   44.33    1.36
  -3  11   7   48.68    2.32
   3  11  -7   44.48    2.93
  -3 -11   7   47.21    3.06
  -3 -11   7   52.60    3.17
  -3 -11   6   14.13    1.90
   3  11  -6   14.80    1.95
  -3  11   6   11.31    1.35
  -3 -11   6   12.36    1.79
  -3 -11   5    5.80    1.61
   3  11  -5    6.70    1.57
  -3 -11   5    6.11    1.54
   3  11  -5    5.95    1.38
  -3  11   5    6.63    1.18
   3  11  -4  124.32    4.04
   3  11  -4  124.81    4.20
  -3 -11   4  118.98    4.19
  -3  11   4  126.14    3.71
  -3 -11   4  127.39    4.25
  -3  11   3  303.80    4.95
   3  11  -3  317.07    5.51
   3  11  -3  318.16    5.56
  -3  11   3  292.03    2.85
  -3  11   3  289.89    2.86
  -3  11   2  117.66    3.61
   3  11  -2  107.86    3.71
  -3  11   2  115.23    2.72
   3  11  -1    3.74    1.21
  -3  11   1    5.87    0.83
  -3  11   0   71.34    2.92
   3  11   0   67.77    2.84
  -3  11   0   69.05    2.35
  -3  11  -1  214.64    5.79
  -3  11  -1  215.95    5.26
  -3  11  -2  143.68    4.32
  -3  11  -2  144.82    4.70
  -3  11  -3   52.44    2.60
  -3 -11  -3   21.94    1.88
  -3 -11  -4   20.46    1.42
  -3 -11  -4   20.05    2.12
   3 -11   4   18.19    1.82
   3  11   4   23.15    2.03
  -3  11  -4   21.03    1.96
   3 -11   5   -0.56    1.40
  -3 -11  -5    0.60    1.32
  -3 -11  -5   -0.08    0.82
   3 -11   5   -1.19    1.29
   3  11   5   -1.01    1.45
  -3  11  -5   -0.57    1.15
   3 -11   6   54.87    3.13
  -3 -11  -6   51.22    2.37
   3 -11   6   50.00    3.12
  -3  11  -6   49.86    3.14
  -3 -11  -6   52.42    3.19
   3 -11   7   74.34    3.74
   3  11   7   62.62    3.43
  -3 -11  -7   68.74    2.87
   3 -11   7   77.62    3.95
  -3  11  -7   70.61    3.81
  -3 -11  -7   76.43    3.86
  -3 -11  -8   21.00    2.46
   3 -11   8   20.06    2.48
  -3  11  -8   27.32    2.77
   3 -11   8   21.26    2.39
  -3 -11  -8   24.00    1.95
   3  11   8   19.87    2.36
  -3  11  -8   18.01    2.40
  -3 -11  -9    2.58    1.57
   3  11   9    0.36    1.75
   3 -11   9    2.23    1.72
  -3  11  -9    0.61    1.74
   3  12  -9    0.99    1.87
  -3 -12   9   -0.58    1.73
  -3 -12   9    0.20    1.87
  -3  12   9   -0.60    1.89
   3  12  -9   -1.12    1.77
  -3 -12   8    8.28    1.97
  -3 -12   8    6.23    2.09
   3  12  -8    6.32    1.81
   3  12  -7   36.04    2.69
  -3  12   7   39.64    2.17
  -3 -12   7   37.16    2.88
  -3 -12   7   37.24    2.82
  -3 -12   6   13.02    1.98
   3  12  -6   12.56    1.87
   3  12  -6   12.61    1.64
  -3  12   6   13.40    1.41
  -3 -12   6   13.53    1.97
   3  12  -5   12.72    1.63
  -3 -12   5   15.12    1.87
   3  12  -5   16.84    1.90
  -3  12   5   15.60    1.45
  -3 -12   5   15.18    1.87
  -3  12   4    1.21    0.98
   3  12  -4    0.85    1.16
   3  12  -4    4.08    1.39
  -3 -12   4    2.83    1.32
   3  12  -3   11.02    1.51
   3  12  -3   11.99    1.58
  -3  12   3   14.30    1.47
  -3  12   3    7.08    0.41
  -3 -12   3    9.76    1.38
  -3  12   2   44.23    2.18
  -3  12   2   45.23    1.29
   3  12  -2   44.31    2.38
   3  12  -1  123.45    4.09
  -3  12   1  121.46    3.13
  -3  12   0   49.92    2.06
  -3  12   0   52.45    2.74
   3  12   0   48.64    2.60
   3  12   1   72.66    3.17
  -3  12  -1   78.19    3.37
  -3  12  -1   74.80    2.81
  -3  12  -2   15.29    1.59
  -3  12  -2   19.62    1.97
  -3  12  -3  116.83    4.09
  -3 -12  -3  117.43    4.42
  -3 -12  -4  182.76    4.51
   3 -12   4  170.77    5.34
   3  12   4  179.55    5.67
  -3  12  -4  171.80    5.42
  -3 -12  -4  183.65    5.79
  -3 -12  -5   63.96    2.42
   3 -12   5   56.02    3.09
   3  12   5   66.45    3.40
   3 -12   5   54.90    3.13
  -3  12  -5   59.23    3.25
  -3 -12  -5   59.16    3.26
   3 -12   6    1.44    1.56
  -3 -12  -6    1.64    1.03
  -3 -12  -6    1.17    1.40
   3 -12   6    1.52    1.44
   3  12   6    1.94    1.55
  -3  12  -6    0.33    1.56
   3 -12   7   22.13    2.46
  -3 -12  -7   32.61    2.80
  -3  12  -7   24.09    2.54
   3  12   7   36.28    2.69
   3 -12   7   27.88    2.54
  -3 -12  -7   30.50    1.91
   3  12   8  105.84    4.61
   3 -12   8   95.34    4.58
  -3  12  -8  101.78    4.83
   3 -12   8  107.89    4.89
  -3 -12  -8  107.88    4.82
  -3 -12  -9   39.60    3.24
   3  12   9   36.61    3.10
  -3 -13   9   11.27    2.27
  -3 -13   9    6.27    2.15
  -3  13   9    4.30    1.98
   3  13  -9    9.82    2.02
   3  13  -9    8.63    2.21
  -3  13   8   69.99    3.01
   3  13  -8   70.80    3.81
  -3 -13   8   69.65    3.89
  -3 -13   8   66.81    3.91
   3  13  -7    0.96    1.46
  -3 -13   7    1.34    1.59
  -3  13   7    3.25    1.19
  -3 -13   7    1.65    1.57
  -3 -13   6    3.77    1.55
   3  13  -6    6.47    1.63
  -3  13   6    3.47    1.13
   3  13  -6    3.55    1.34
  -3 -13   6    5.12    1.69
   3  13  -5   -1.07    1.37
   3  13  -5    0.13    1.38
  -3 -13   5    0.81    1.34
  -3  13   5    1.03    1.04
   3  13  -4   30.60    2.21
   3  13  -4   29.91    2.20
  -3  13   4   29.12    1.93
  -3 -13   4   25.45    2.11
   3  13  -3  276.31    7.09
  -3 -13   3  284.68    7.10
  -3  13   3  284.57    6.84
   3  13  -2    1.58    1.15
   3  13  -2    2.10    1.33
  -3  13   2    1.72    1.16
  -3  13   2    1.67    0.53
   3  13  -1   13.90    1.62
   3  13  -1   15.20    1.68
  -3  13   1   18.25    1.14
  -3  13   0   72.12    2.46
  -3  13   0   67.52    3.18
   3  13   0   68.32    3.11
  -3  13  -1  153.12    5.12
  -3  13  -1  165.66    4.49
  -3  13  -2  500.05   11.15
  -3  13  -2  483.75   10.40
  -3 -13  -3   57.87    3.11
   3  13   3   53.58    2.97
  -3  13  -3   59.23    2.90
  -3  13  -4    2.13    1.27
  -3 -13  -4    1.62    0.84
   3 -13   4    1.75    1.31
   3  13   4    1.44    1.30
  -3 -13  -5  113.18    3.37
   3 -13   5  117.74    4.47
   3  13   5  116.63    4.65
  -3  13  -5  118.39    4.63
  -3 -13  -5  119.74    4.76
   3 -13   6  192.14    6.16
   3  13   6  178.03    6.12
   3 -13   6  172.84    6.08
  -3  13  -6  190.64    6.29
  -3 -13  -6  192.02    6.33
  -3 -13  -6  183.58    4.71
   3 -13   7   38.19    2.87
   3  13   7   49.16    3.14
   3 -13   7   47.98    3.27
  -3  13  -7   44.44    3.20
  -3 -13  -7   49.82    2.25
  -3 -13  -7   50.01    3.24
   3 -13   8   20.58    2.68
  -3 -13  -8   23.43    2.69
   3  13   8   23.31    2.52
   3 -13   8   23.39    2.57
  -3  13  -8   25.45    2.86
  -3 -14   9    2.44    1.88
  -3 -14   9    1.04    1.92
   3  14  -9    0.21    1.90
   3  14  -9    2.18    1.70
  -3 -14   8    2.80    1.96
  -3 -14   8    1.90    1.78
  -3  14   8    1.35    1.33
   3  14  -8    3.99    1.76
  -3 -14   7    6.23    1.95
   3  14  -7    5.97    1.72
   3  14  -7    7.08    1.60
  -3  14   7    7.92    1.38
  -3 -14   7    7.30    1.89
   3  14  -6   16.59    1.90
  -3  14   6   18.46    1.75
   3  14  -6   17.76    2.20
  -3 -14   6   13.10    2.03
  -3 -14   6   16.44    2.14
  -3  14   5   12.66    1.54
   3  14  -5    9.46    1.70
   3  14  -5   10.86    1.76
  -3 -14   5   11.97    1.79
  -3  14   4    0.10    1.10
   3  14  -4    0.74    1.33
   3  14  -4    2.17    1.37
  -3 -14   4    0.38    1.32
   3  14  -3   19.41    2.10
  -3  14   3   16.96    1.79
  -3 -14   3   16.29    1.82
  -3  14   2   61.06    2.75
  -3  14   2   60.40    1.38
   3  14  -2   61.63    3.01
   3  14  -2   60.32    2.90
  -3  14   1   44.47    1.69
   3  14  -1   43.17    2.63
   3  14  -1   39.78    2.52
   3  14   0   24.37    2.07
  -3  14   0   22.82    2.25
  -3  14   0   20.79    1.50
  -3  14  -1   20.91    2.21
  -3  14  -1   20.75    1.63
  -3  14  -2   31.39    2.60
  -3  14  -2   30.92    2.15
  -3 -14  -3   19.18    2.01
   3  14   3   19.66    2.07
  -3  14  -3   19.02    1.91
  -3 -14  -4   20.15    1.34
   3 -14   4   18.20    1.90
  -3 -14  -4   15.63    1.96
   3  14   4   20.79    2.18
  -3  14  -4   14.18    1.89
  -3 -14  -5   13.35    1.21
   3 -14   5   12.43    1.82
  -3 -14  -5   12.18    1.97
   3  14   5   10.69    1.91
  -3  14  -5    9.19    1.83
  -3 -14  -6    8.39    1.14
   3 -14   6    8.18    1.88
  -3 -14  -6    8.35    1.95
  -3  14  -6    8.93    1.93
   3  14   6    9.86    1.94
   3  14   7    7.83    1.84
  -3 -14  -7    7.57    1.85
   3 -14   7    6.88    1.84
  -3  14  -7    6.68    2.02
   3 -14   7    7.19    1.93
  -3 -14  -8   21.72    2.61
   3 -14   8   21.03    2.56
   3 -14   8   21.89    2.71
   3  14   8   18.90    2.47
  -3 -15   8   37.75    2.98
   3  15  -8   37.47    2.73
  -3  15   8   36.08    2.38
   3  15  -8   40.22    3.07
  -3 -15   8   31.40    3.01
  -3 -15   7   22.28    2.43
   3  15  -7   19.07    2.16
   3  15  -7   22.35    2.44
  -3  15   7   21.68    1.92
  -3 -15   7   14.76    2.31
   3  15  -6    5.21    1.58
   3  15  -6    6.40    1.78
  -3  15   6    5.40    1.33
  -3 -15   6    4.63    1.69
  -3  15   5   10.86    1.46
  -3 -15   5   10.06    1.78
   3  15  -5    9.41    1.70
   3  15  -5   11.60    1.80
   3  15  -4   70.30    3.40
   3  15  -4   65.59    3.18
  -3 -15   4   66.42    3.32
  -3  15   4   76.79    3.21
  -3 -15   3  422.97    9.68
   3  15  -3  417.44    9.84
  -3  15   3  418.40    9.54
   3  15  -2   10.34    1.68
  -3  15   2    8.97    0.58
   3  15  -2   10.31    1.80
  -3  15   2    8.38    1.54
  -3 -15   2    8.15    1.26
   3  15  -1    4.90    1.51
   3  15  -1    6.01    1.52
  -3  15   1    4.63    1.43
  -3  15   1    6.58    0.85
  -3  15   0   34.83    2.65
  -3  15   0   35.43    1.81
   3  15   0   34.14    2.42
   3  15   0   37.15    2.56
  -3  15  -1   82.99    3.81
  -3  15  -1   80.93    3.00
  -3  15  -2   94.25    4.23
  -3  15  -2   99.04    3.65
  -3  15  -3    3.55    1.36
  -3 -15  -3    7.42    1.71
   3  15   3    4.92    1.59
  -3 -15  -4    3.71    0.85
  -3 -15  -4    3.15    1.57
   3  15   4    1.73    1.54
  -3  15  -4    3.22    1.46
   3 -15   5   17.54    2.07
  -3 -15  -5   21.51    2.34
   3  15   5   16.53    2.22
  -3  15  -5   16.75    2.13
  -3 -15  -5   17.81    1.26
  -3 -15  -6    9.22    1.07
   3 -15   6    7.73    1.80
  -3 -15  -6   10.34    2.01
   3  15   6    8.05    1.97
  -3  15  -6   11.82    2.01
   3 -15   7    4.70    1.69
  -3 -15  -7    3.90    1.79
  -3  15  -7    5.62    1.88
   3  16  -9    1.33    1.51
  -3 -16   8    3.15    1.88
   3  16  -8    1.92    1.59
  -3  16   8    2.68    1.44
   3  16  -8    3.89    1.87
  -3 -16   8    2.03    1.81
  -3 -16   7    6.34    1.88
   3  16  -7    3.73    1.74
   3  16  -7    3.72    1.53
  -3  16   7    5.35    1.39
  -3  16   6    1.70    1.24
   3  16  -6    3.61    1.51
   3  16  -6    1.75    1.43
  -3 -16   6    1.48    1.48
   3  16  -5    0.29    1.45
  -3  16   5   -0.24    1.19
   3  16  -5   -0.86    1.42
  -3 -16   5    1.20    1.42
  -3  16   4    3.56    1.39
   3  16  -4    2.69    1.50
   3  16  -4    3.20    1.43
  -3 -16   4    2.86    1.40
  -3 -16   3    3.43    1.56
  -3  16   3    4.12    1.60
   3  16  -3    3.93    1.74
   3  16  -2   -0.14    1.33
   3  16  -2    3.06    1.51
  -3  16   2    0.26    1.26
  -3  16   2    0.89    0.27
  -3 -16   2    0.55    1.14
   3  16  -1    2.27    1.39
   3  16  -1    2.67    1.43
  -3  16   1    2.83    1.37
  -3  16   1    4.53    0.75
  -3 -16   1   -0.10    0.43
  -3  16   1    4.18    1.61
   3  16   0   14.72    1.95
   3  16   0   15.99    1.88
  -3  16   0   14.94    2.07
  -3  16   0   14.85    1.28
  -3  16  -1   22.85    2.34
  -3  16  -1   20.87    1.68
  -3  16  -2    3.81    1.36
  -3  16  -2    3.72    1.80
  -3 -16  -3   18.24    2.17
  -3  16  -3   13.55    1.81
   3  16   3   13.47    1.96
  -3 -16  -4   25.21    1.35
  -3 -16  -4   28.17    2.60
   3  16   4   29.11    2.56
  -3  16  -4   24.37    2.30
  -3 -16  -5   45.06    3.17
   3 -16   5   43.82    2.93
   3  16   5   46.60    3.12
  -3  16  -5   47.39    3.07
  -3 -16  -5   41.88    1.70
   3 -16   6   -1.35    1.62
  -3 -16  -6    0.19    1.62
   3  16   6   -0.74    1.70
  -3  16  -6   -1.43    1.66
   3 -16   7    2.22    1.65
   3  16   7    3.14    1.65
  -3 -16  -7    2.43    1.78
  -3  16  -7    2.97    1.84
   3  17  -9    8.25    1.83
  -3 -17   8   41.02    3.28
   3  17  -8   41.09    3.01
  -3 -17   7    3.53    1.76
   3  17  -7    2.53    1.61
  -3  17   7    3.31    1.38
   3  17  -7    0.33    1.57
  -3 -17   6    2.89    1.64
   3  17  -6    3.18    1.61
   3  17  -6    3.43    1.64
  -3  17   6    2.60    1.29
  -3  17   5    5.16    1.45
   3  17  -5    6.31    1.71
   3  17  -5    4.33    1.66
  -3 -17   5    3.40    1.58
  -3  17   4   20.55    2.03
   3  17  -4   22.51    2.34
  -3 -17   4   23.38    2.25
  -3 -17   3  238.66    6.65
  -3  17   3  236.89    6.72
   3  17  -3  234.67    6.98
   3  17  -2   -1.65    1.59
  -3  17   2   -1.66    1.52
   3  17  -2    0.16    1.60
  -3 -17   2    1.02    1.18
   3  17  -1    7.37    1.72
   3  17  -1    7.53    1.79
  -3  17   1    8.69    1.67
  -3  17   1    6.44    0.80
  -3  17   1    5.47    1.87
   3  17   0    5.83    1.62
  -3  17   0    7.76    1.86
  -3  17   0    5.85    1.03
   3  17   0    7.83    1.72
  -3  17  -1   50.31    3.31
  -3  17  -1   48.46    2.37
   3  17   1   46.01    2.98
  -3  17  -2  237.03    6.32
  -3  17  -2  240.45    7.43
   3  17   3    9.22    1.83
  -3  17  -3   10.29    1.63
  -3 -17  -4    2.25    0.70
   3  17   4   -0.52    1.46
  -3 -17  -4    3.27    1.64
  -3  17  -4    0.15    1.46
  -3 -17  -5   53.37    3.53
   3  17   5   57.36    3.55
  -3  17  -5   62.68    3.50
  -3 -17  -6   70.79    4.07
   3  17   6   74.10    3.98
  -3  17  -6   68.44    3.84
   3  18  -8    1.79    1.69
  -3 -18   7   -1.33    1.74
  -3  18   7    0.99    1.37
   3  18  -7    0.17    1.60
   3  18  -7   -0.37    1.55
   3  18  -6    5.72    1.76
   3  18  -6    7.69    1.83
  -3  18   6    4.04    1.53
  -3  18   5    5.53    1.57
   3  18  -5    7.55    1.86
   3  18  -5    7.68    1.72
  -3 -18   5    9.05    1.81
  -3  18   4    2.56    1.48
   3  18  -4    1.29    1.53
  -3 -18   4    3.89    1.57
  -3  18   3   13.13    1.98
   3  18  -3   16.40    2.19
  -3 -18   3   14.13    1.86
   3  18  -2    9.10    1.77
  -3  18   2    6.23    1.66
   3  18  -2    5.32    1.84
  -3 -18   2    7.70    1.50
  -3  18   1    8.85    1.75
  -3  18   1    7.96    1.97
   3  18  -1    7.82    1.85
   3  18  -1    7.25    1.83
  -3  18   1    9.59    0.82
  -3 -18   1    2.48    0.94
   3  18   0    3.03    1.51
   3  18   0    1.92    1.67
  -3  18   0    1.41    1.61
  -3  18   0    2.10    1.58
  -3  18   0    2.05    0.90
  -3  18  -1    1.07    1.72
  -3  18  -1    2.43    1.10
   3  18   1    1.77    1.58
  -3  18  -2    3.04    1.31
  -3  18  -2    2.75    1.76
   3  18   3   -1.21    1.59
  -3  18  -3   -1.32    1.36
   3  18   4   -1.81    1.65
  -3  18  -4   -1.05    1.47
  -3 -18  -5   -0.59    1.77
   3  18   5   -1.91    1.75
  -3  18  -5   -0.17    1.47
  -3  18  -6   -0.38    1.65
  -3 -19   7   10.74    2.18
   3  19  -7    4.57    1.76
  -3  19   7    8.07    1.75
   3  19  -7    7.71    1.93
  -3 -19   6    1.08    1.70
   3  19  -6    0.89    1.62
   3  19  -6   -0.17    1.59
  -3  19   6    1.34    1.47
  -3 -19   5    3.29    1.60
   3  19  -5    5.37    1.82
  -3  19   5    3.25    1.52
  -3  19   4   17.41    2.10
   3  19  -4   20.00    2.39
  -3 -19   4   18.69    2.18
  -3  19   3   93.21    4.15
   3  19  -3   87.97    4.25
  -3 -19   3   87.62    3.79
   3  19  -2   14.24    2.17
  -3  19   2    9.18    1.85
   3  19  -2   11.68    2.23
  -3 -19   2   11.41    1.69
  -3  19   1    3.39    1.85
   3  19  -1    7.92    1.84
   3  19  -1    3.79    1.82
  -3  19   1    6.76    1.82
  -3  19   1    6.08    0.69
  -3 -19   1    3.91    1.24
   3  19   0   13.17    2.00
   3  19   0   13.81    2.11
  -3  19   0    8.62    2.06
  -3  19   0   12.91    2.11
  -3  19   0   14.57    1.27
  -3  19  -1   65.61    2.79
   3  19   1   69.84    3.79
  -3  19  -1   74.66    4.06
  -3  19  -2   38.69    3.20
  -3  19  -2   46.62    2.57
  -3  19  -3    4.06    1.39
   3  19   3    1.27    1.50
   3  19   4    5.12    1.75
  -3  19  -4    6.18    1.65
  -3  19  -5    0.69    1.55
  -3  19  -6   13.52    2.16
  -3 -20   6   -0.92    1.69
   3  20  -6    1.74    1.54
  -3  20   6   -0.79    1.47
   3  20  -5   -0.55    1.70
  -3  20   5    1.73    1.48
  -3 -20   4    5.52    1.69
  -3  20   4    3.71    1.74
   3  20  -4    5.43    1.87
  -3  20   3    5.79    1.84
   3  20  -3    5.37    1.86
  -3 -20   3    7.67    1.69
  -3  20   2   -1.42    1.87
   3  20  -2    0.18    1.61
  -3  20   2    0.17    1.56
   3  20  -2    0.75    1.67
  -3 -20   2   -0.12    1.24
   3  20  -1   -0.18    1.50
   3  20  -1    0.74    1.67
  -3  20   1   -0.35    1.57
  -3  20   1   -0.60    1.91
  -3 -20   1   -0.32    1.18
   3  20   0    0.36    1.57
   3  20   0   -0.36    1.73
  -3  20   0    1.60    1.91
  -3  20   0    2.01    1.67
  -3  20   0   -0.20    0.86
  -3 -20   0    1.01    0.92
   3  20   1    3.09    1.77
  -3  20  -1    4.47    2.13
  -3  20  -1    3.44    1.80
  -3  20  -1    2.06    1.10
  -3  20  -2   -0.12    1.17
  -3  20  -2    0.82    1.79
   3  20   2   -0.19    1.65
   3  20   3    1.33    1.68
  -3  20  -3    1.51    1.37
  -3  20  -4    2.83    1.49
  -3  20  -5    6.55    1.84
  -3 -21   6    4.50    1.84
  -3  21   6    5.53    1.66
  -3 -21   5    2.92    1.73
  -3  21   5    1.51    1.55
  -3 -21   4    3.44    1.57
  -3  21   4    3.42    1.71
  -3 -21   3    4.93    1.52
  -3  21   3    2.83    1.66
   3  21  -3    3.04    1.72
  -3 -21   2    0.37    1.28
   3  21  -2    1.89    1.62
  -3  21   2    1.80    1.63
   3  21  -2    0.99    1.82
  -3  21   2    1.08    1.92
  -3  21   1    4.25    2.01
   3  21  -1    2.43    1.63
   3  21  -1    3.34    2.01
  -3  21   1    3.90    1.74
  -3 -21   1    0.86    1.15
   3  21   0   -0.75    1.78
   3  21   0   -0.38    1.79
  -3  21   0   -1.06    2.05
  -3  21   0   -0.78    1.74
  -3  21  -1   12.03    2.40
  -3  21  -1   18.82    2.50
   3  21   1   14.86    2.38
  -3  21  -2   38.42    3.28
   3  21   2   31.68    3.02
  -3 -22   5    0.17    1.61
  -3  22   5    1.24    1.62
  -3 -22   4    0.48    1.42
  -3  22   4    0.18    1.51
  -3  22   3    5.81    1.91
  -3  22   2    1.34    1.73
   3  22  -2    1.68    1.87
   3  22  -1    3.93    1.97
  -3  22   1    0.98    1.73
   3  22   0   -1.42    1.85
   3  22   1    4.90    1.97
   3  22   2    0.62    1.77
  -4   0  12   -0.71    1.69
   4   0 -12    1.28    1.70
  -4   0  11    5.62    1.72
   4   0 -11    3.33    1.67
   4   0 -10   92.68    2.53
   4   0 -10  105.91    4.36
  -4   0  10  104.47    4.33
   4   0  -9  221.67    6.29
  -4   0   9  212.83    6.21
   4   0  -8   31.24    2.26
   4   0  -8   27.50    0.97
  -4   0   8   29.72    2.23
   4   0  -7    2.15    1.10
  -4   0   7    1.65    1.04
   4   0  -6   98.67    3.45
  -4   0   6   94.41    3.46
  -4   0   5  433.24    9.24
  -4   0   4 1836.36   31.90
  -4   0   4 1894.15   32.47
  -4   0   3   23.28    0.73
  -4   0   3   25.93    1.19
  -4   0   2  139.35    3.02
  -4   0   1  364.50    7.08
  -4   0   0 1285.10   22.44
  -4   0  -1 2871.34   47.52
   4   0   1 2783.57   46.11
  -4   0  -2  329.87    6.31
  -4   0  -3   34.16    1.99
  -4   0  -3   37.90    1.59
  -4   0  -4 1012.23   19.24
  -4   0  -6  586.20   12.75
  -4   0  -6  554.85   12.43
  -4   0  -7  152.26    5.51
  -4   0  -7  157.08    5.40
  -4   0  -8   69.05    3.77
  -4   0  -8   76.33    3.88
  -4   0  -9  169.37    6.11
  -4   0  -9  153.34    5.76
  -4   0 -10  270.77    8.46
  -4   0 -10  268.84    8.28
  -4  -1  12   -0.18    1.73
   4  -1 -12    1.24    1.65
   4   1 -12   -0.56    1.62
  -4  -1  11    4.61    1.67
  -4   1  11    8.79    1.83
   4   1 -11    3.45    1.66
   4  -1 -11    6.29    1.69
  -4   1  10    2.77    1.63
   4   1 -10    6.11    1.83
  -4  -1  10    3.58    1.75
   4  -1 -10    4.52    1.71
   4  -1  -9    0.36    0.53
  -4  -1   9    7.37    1.84
   4   1  -9    7.59    1.78
   4  -1  -9    6.81    1.70
   4   1  -9    2.16    0.74
  -4   1   9    7.74    1.80
   4   1  -8   10.55    0.76
   4  -1  -8   10.61    1.56
   4   1  -8   13.29    1.74
  -4  -1   8   13.53    1.76
  -4   1   8   10.73    1.56
   4   1  -7   13.54    1.65
  -4   1   7   15.11    1.58
   4  -1  -7   13.51    1.48
  -4  -1   7   14.90    1.60
   4   1  -6    4.96    1.31
  -4   1   6    8.00    1.40
  -4   1   6    7.41    1.23
  -4  -1   6    7.25    1.26
  -4   1   5    2.03    1.24
  -4  -1   5    4.54    1.32
  -4   1   5    0.80    1.22
  -4   1   4   21.86    1.84
  -4  -1   4   27.17    1.96
  -4  -1   3   57.46    1.43
  -4   1   3   58.31    1.87
  -4   1   2  129.08    2.81
  -4   1   2  127.34    2.80
  -4  -1   2  128.37    2.90
  -4  -1   1   20.58    1.11
  -4   1   1   17.45    1.03
  -4  -1   0  325.27    6.80
  -4   1  -1   74.04    1.83
   4  -1   1   72.41    1.83
  -4  -1  -1   72.38    2.69
  -4   1  -2    0.83    0.53
  -4   1  -3   63.33    2.16
  -4   1  -3   59.35    2.68
  -4  -1  -3   63.98    2.67
  -4   1  -4  181.16    5.34
  -4  -1  -4  189.28    5.34
  -4   1  -4  193.48    4.78
  -4   1  -5   10.60    1.54
  -4   1  -5   12.38    1.32
  -4  -1  -5   13.95    1.65
  -4   1  -6    1.08    1.03
  -4   1  -6   -0.28    1.13
  -4  -1  -6    1.48    1.18
  -4  -1  -6   -0.15    1.14
  -4   1  -7   23.40    2.28
  -4  -1  -7   19.50    2.21
  -4  -1  -7   17.51    2.08
  -4   1  -7   18.86    2.23
  -4   1  -8   13.81    2.06
  -4  -1  -8   15.94    2.06
  -4   1  -8   14.66    2.19
  -4  -1  -8   13.03    2.03
  -4   1  -9    0.19    1.43
  -4  -1  -9   -0.18    1.34
  -4   1  -9    3.46    1.50
  -4  -1  -9    4.88    1.61
  -4   1 -10    1.86    1.56
  -4  -1 -10    5.05    1.81
  -4   1 -10    5.01    1.63
  -4  -1 -10    1.58    1.47
  -4  -2  12   11.03    2.13
  -4   2  12   12.52    2.05
   4  -2 -12    9.58    2.00
   4   2 -12   10.68    2.10
  -4  -2  11    7.75    1.83
  -4   2  11    7.69    1.82
   4  -2 -11   10.76    1.93
   4   2 -11    8.21    1.95
   4  -2 -10   61.93    3.25
  -4  -2  10   63.54    3.51
   4   2 -10   67.25    3.63
  -4   2  10   56.38    3.22
   4   2  -9  118.08    3.16
   4   2  -9  128.45    4.78
   4  -2  -9  137.33    4.64
  -4  -2   9  132.17    4.84
  -4   2   9  127.81    4.52
  -4  -2   8   66.27    3.23
   4  -2  -8   64.87    2.94
   4   2  -8   63.98    3.14
  -4   2   8   66.77    3.03
  -4   2   8   57.63    3.13
   4  -2  -7    7.11    1.26
   4   2  -7    6.39    1.40
  -4   2   7    8.68    1.29
   4   2  -7    7.04    1.44
  -4  -2   7    8.58    1.42
  -4   2   7   10.12    1.57
   4   2  -6   74.73    3.07
  -4   2   6   78.54    2.93
  -4  -2   6   79.68    3.15
  -4   2   6   80.91    3.13
  -4   2   5  523.38   10.29
  -4  -2   5  515.00   10.58
  -4   2   5  528.09   10.33
   4   2  -5  490.56    8.75
  -4   2   4 2211.75   37.42
  -4   2   4 2177.96   37.62
   4   2  -4 2191.63   36.27
   4   2  -3   52.61    1.67
  -4   2   3   49.80    1.75
   4   2  -3   48.32    1.39
  -4   2   3   44.14    1.95
  -4   2   3   39.61    0.99
   4   2  -2    6.04    0.53
   4   2  -2    6.80    0.66
   4   2  -1  685.67   12.57
  -4  -2   1  700.06   12.57
  -4  -2   0 1674.77   28.88
  -4  -2  -1 2416.46   41.32
   4  -2   2   10.73    0.86
  -4   2  -3   49.52    1.93
  -4   2  -4  445.81   10.14
  -4  -2  -4  461.42   10.03
  -4   2  -4  478.32    9.51
  -4  -2  -5  521.67    7.90
  -4   2  -5  521.58    7.18
  -4   2  -5  525.94    8.25
  -4   2  -6  169.69    5.01
  -4  -2  -6  165.15    5.56
  -4   2  -6  165.76    5.43
  -4  -2  -6  166.55    5.30
  -4   2  -7   93.78    3.84
  -4  -2  -7  101.35    4.39
  -4   2  -7   99.18    4.28
  -4  -2  -7   94.25    4.08
  -4  -2  -8    2.76    1.46
  -4   2  -8    1.58    1.60
  -4  -2  -8    2.52    1.53
  -4   2  -8    3.17    1.63
  -4   2  -9  112.87    4.92
  -4  -2  -9  112.19    4.95
  -4   2  -9  108.04    4.82
  -4  -2  -9  115.68    4.79
  -4   2 -10   86.44    4.50
  -4  -2 -10   85.60    4.52
  -4  -2 -10   90.66    4.39
  -4  -3  12    1.37    1.68
  -4   3  12    1.92    1.51
   4  -3 -12   -0.16    1.57
  -4  -3  11   -0.73    1.54
  -4   3  11   -0.15    1.37
   4  -3 -11    0.15    1.39
   4   3 -11    0.18    1.64
  -4   3  10    2.15    1.54
   4  -3 -10   -0.79    0.55
   4  -3 -10    3.11    1.52
   4   3 -10    4.31    1.86
  -4  -3  10    2.49    1.78
  -4   3   9    7.59    2.07
   4  -3  -9    8.80    1.74
   4   3  -9   10.05    1.96
  -4  -3   9   10.79    2.06
  -4   3   9   10.62    1.74
  -4   3   8    0.42    1.41
   4   3  -8    0.27    1.37
   4  -3  -8    0.96    1.03
   4   3  -8    0.68    1.26
  -4  -3   8   -0.14    1.37
  -4   3   8   -0.11    1.10
   4   3  -7    0.12    1.15
   4   3  -7    1.32    1.11
  -4  -3   7    0.62    1.16
  -4   3   7    3.37    1.02
  -4   3   7    0.95    1.22
  -4  -3   6    6.07    1.43
   4   3  -6    5.70    0.66
  -4   3   6    6.13    1.42
   4   3  -6    6.66    1.43
  -4   3   6    8.03    1.27
  -4   3   5    5.95    1.36
  -4  -3   5   13.25    1.62
   4   3  -5    8.11    0.78
  -4   3   5   10.68    1.37
   4   3  -5   11.22    1.50
   4   3  -4   53.66    1.67
  -4   3   4   50.54    2.36
  -4   3   4   55.13    2.41
   4   3  -3   45.68    1.67
   4   3  -3   49.30    1.55
   4   3  -2   29.29    1.25
   4   3  -2   29.52    1.08
  -4  -3   2   29.59    1.10
  -4  -3   2   30.24    1.29
   4   3  -1  148.27    3.66
  -4  -3   1  151.80    3.71
   4   3   0   41.75    1.88
  -4  -3   0   44.51    1.95
  -4   3   0   45.61    1.46
  -4  -3  -1   21.64    1.53
   4   3   1   19.21    0.83
   4  -3   2   87.16    2.49
   4   3   2   83.76    2.23
   4  -3   3    5.52    0.95
   4   3   3    4.76    0.77
  -4  -3  -4   28.36    1.89
   4   3   4   31.80    1.70
  -4   3  -4   31.52    1.80
  -4   3  -5    4.95    1.27
  -4  -3  -5    3.42    1.17
  -4   3  -5    5.04    1.16
  -4  -3  -5    3.50    1.03
  -4   3  -6    3.50    1.39
  -4  -3  -6    5.40    1.37
  -4  -3  -6    3.15    1.39
  -4   3  -6    2.39    1.14
  -4   3  -7    7.17    1.85
  -4  -3  -7    7.59    1.69
  -4   3  -7    9.14    1.59
  -4  -3  -7    3.80    1.60
  -4   3  -8    3.24    1.66
  -4  -3  -8    1.59    1.40
  -4  -3  -8    1.62    1.54
  -4   3  -8    1.03    1.36
  -4  -3  -9   -0.35    1.36
  -4   3  -9    3.46    1.53
  -4  -3  -9    1.18    1.41
  -4   3  -9    3.74    1.62
  -4   3 -10    0.83    1.52
  -4  -3 -10    1.90    1.47
  -4  -3 -10    1.33    1.56
  -4   4  12    0.46    1.52
  -4  -4  11    8.43    2.04
   4  -4 -11    6.17    1.61
   4   4 -11    9.30    2.06
   4  -4 -10  102.62    4.00
   4   4 -10   92.24    4.34
  -4   4  10   88.15    4.50
  -4  -4  10   95.44    4.38
  -4   4  10   97.80    3.93
  -4   4   9  182.37    5.37
   4   4  -9  177.37    5.98
  -4   4   9  172.97    6.02
  -4  -4   9  177.47    5.98
   4  -4  -9  182.62    5.37
   4   4  -9  179.48    5.93
   4   4  -8    8.01    1.61
   4   4  -8    9.54    1.73
  -4  -4   8    7.24    1.70
  -4   4   8    9.79    1.41
  -4   4   8    6.90    1.64
   4   4  -7   19.57    1.88
  -4   4   7   22.17    2.01
  -4  -4   7   17.59    1.91
   4   4  -7   17.21    1.82
  -4   4   7   19.26    1.60
  -4   4   6  211.39    5.24
   4   4  -6  214.43    5.35
   4   4  -6  206.13    3.78
  -4   4   6  208.89    4.75
  -4   4   5  525.37   10.68
  -4   4   5  520.86   10.29
   4   4  -5  521.40   10.92
   4   4  -5  515.72    9.48
  -4   4   4  909.07   16.79
   4   4  -4  933.14   16.11
   4   4  -3  139.87    3.46
   4   4  -3  144.35    3.34
  -4  -4   3  141.33    3.49
  -4  -4   2   52.20    1.85
   4   4  -2   50.91    1.79
  -4  -4   2   53.77    1.61
   4   4  -1  208.16    4.79
  -4  -4   1  212.81    4.87
   4   4   0  851.39   15.54
  -4  -4   0  854.50   15.58
   4   4   0  840.63   14.37
  -4   4   0  849.11   14.86
   4   4   1 1273.53   22.56
  -4  -4  -1 1244.16   22.55
   4   4   2  647.79   11.63
  -4   4  -2  640.07   12.82
   4  -4   2  652.46   12.03
   4   4   3    3.57    0.78
   4  -4   3    1.98    0.91
  -4  -4  -4  120.60    3.99
  -4   4  -4  129.27    3.83
   4   4   4  125.06    3.60
   4  -4   4  131.36    3.89
  -4  -4  -5  775.04   14.98
  -4   4  -5  777.28   14.71
   4   4   5  771.28   14.47
  -4  -4  -6  571.69   12.78
  -4   4  -6  567.60   12.04
  -4   4  -6  552.72   12.64
  -4  -4  -6  574.64   12.25
  -4   4  -7  103.82    4.10
  -4  -4  -7   93.74    4.32
  -4   4  -7  106.91    4.48
  -4  -4  -7  102.68    4.15
  -4   4  -8   50.34    3.04
  -4  -4  -8   50.58    3.34
  -4   4  -8   50.57    3.34
  -4  -4  -8   48.25    3.09
  -4  -4  -9   60.18    3.42
  -4  -4  -9   66.48    3.82
  -4   4  -9   65.90    3.60
  -4   4  -9   61.98    3.68
  -4  -4 -10  247.67    7.98
  -4  -4 -10  240.97    7.54
  -4  -5  11   34.49    3.04
   4   5 -11   38.96    3.21
  -4   5  11   30.82    2.40
  -4   5  10    3.31    1.56
   4   5 -10    2.99    1.84
  -4  -5  10    5.64    1.95
   4   5 -10    3.83    1.87
  -4   5  10    3.50    2.16
  -4   5   9    3.40    1.40
   4   5  -9    5.06    1.88
  -4   5   9    2.95    1.93
   4   5  -9    2.36    1.85
  -4  -5   9    2.92    1.68
   4   5  -8   30.13    2.43
   4   5  -8   27.81    2.44
  -4   5   8   30.25    2.00
  -4   5   8   33.47    2.55
  -4  -5   8   28.63    2.51
  -4   5   7   32.08    2.32
   4   5  -7   27.47    2.23
  -4   5   7   26.26    1.77
  -4  -5   7   25.43    2.14
   4   5  -7   24.53    2.08
   4   5  -6   23.76    1.26
  -4   5   6   26.96    1.63
   4   5  -6   25.69    2.00
  -4   5   6   21.22    1.90
   4   5  -5    3.88    0.89
  -4   5   5    4.34    1.10
  -4   5   4    3.34    0.49
   4   5  -4    6.83    0.97
  -4   5   4    5.83    1.18
   4   5  -3  106.20    2.84
  -4  -5   3  100.03    2.88
  -4  -5   2   86.51    2.57
   4   5  -2   75.30    2.42
   4   5  -1   32.81    1.62
  -4  -5   1   34.19    1.68
   4   5   0   49.52    2.12
   4   5   0   49.86    1.53
  -4   5   0   50.56    1.84
  -4  -5   0   52.00    2.20
  -4   5  -1    4.38    1.13
  -4  -5  -1    5.11    1.11
  -4   5  -2   71.53    2.91
   4   5   2   70.69    2.88
   4  -5   2   77.52    2.51
  -4   5  -3  188.54    5.46
   4   5   3  196.39    4.60
   4  -5   3  198.42    4.92
  -4  -5  -4  132.04    4.18
   4  -5   4  141.04    4.17
   4   5   4  139.99    3.88
  -4  -5  -5   22.13    1.84
  -4   5  -5   24.16    1.82
   4   5   5   20.65    1.65
  -4  -5  -5   18.20    1.92
   4  -5   5   21.17    1.84
  -4  -5  -6   14.94    1.78
   4  -5   6   14.67    1.84
   4   5   6   13.60    1.68
  -4  -5  -6   15.58    1.90
  -4   5  -6   15.30    1.73
  -4  -5  -7   83.68    4.10
  -4   5  -7   81.87    4.03
  -4   5  -7   83.15    3.73
  -4  -5  -7   86.28    3.77
  -4   5  -8   90.66    4.03
  -4  -5  -8   87.62    4.25
  -4   5  -8   83.99    4.15
  -4  -5  -8   80.51    3.82
  -4  -5  -9   10.35    1.88
  -4  -5  -9   11.69    2.00
  -4   5  -9    7.36    1.78
  -4   5  -9   10.65    1.92
  -4   5 -10    1.70    1.70
  -4  -5 -10   -0.72    1.60
   4   6 -11    1.99    1.95
  -4  -6  11    2.58    1.76
  -4   6  11    2.93    1.37
  -4   6  11    3.12    2.06
   4   6 -11    1.37    1.77
  -4   6  10   22.00    1.97
   4   6 -10   24.55    2.55
  -4   6  10   18.60    2.66
  -4  -6  10   17.42    2.38
   4   6 -10   18.28    2.48
   4   6  -9   57.08    3.41
   4   6  -9   57.36    3.43
  -4  -6   9   59.30    3.51
  -4   6   9   64.47    2.87
  -4   6   9   57.03    3.50
  -4  -6   8   49.29    3.09
  -4   6   8   51.19    2.43
   4   6  -8   48.42    2.95
   4   6  -8   51.46    3.03
  -4   6   8   50.73    3.10
   4   6  -7    0.86    1.28
  -4   6   7    1.71    1.40
   4   6  -7   -0.13    0.79
   4   6  -7    0.53    1.23
  -4  -6   7    0.83    1.31
  -4   6   7    0.08    0.94
   4   6  -6    7.40    0.99
  -4   6   6    6.89    1.10
  -4   6   6    6.16    1.46
  -4   6   5  208.31    4.13
  -4   6   5  217.08    5.05
   4   6  -5  220.73    4.87
  -4   6   4  621.80   11.83
  -4   6   4  616.08   11.07
   4   6  -4  631.54   11.73
  -4  -6   3  239.68    5.40
   4   6  -3  245.70    5.36
  -4  -6   2   61.63    2.27
   4   6  -2   60.15    2.18
   4   6  -1  360.70    7.64
   4   6  -1  370.78    7.10
  -4  -6   1  369.65    7.77
   4   6   0 1235.49   21.89
   4   6   0 1219.61   20.92
  -4   6   0 1205.72   21.37
  -4  -6   0 1225.28   21.99
  -4   6  -1 1106.80   20.30
   4   6   1 1114.71   20.36
  -4   6  -1 1110.94   19.77
  -4  -6  -1 1116.89   20.44
  -4   6  -2   80.46    3.10
   4   6   2   86.49    3.28
  -4   6  -3   70.34    3.07
   4   6   3   73.86    2.51
   4  -6   3   75.96    2.79
   4   6   4   86.95    2.92
  -4  -6  -4   86.62    3.17
   4  -6   4   80.09    3.07
  -4   6  -4   77.66    3.39
  -4  -6  -5  642.89   13.04
  -4  -6  -5  623.30   13.66
   4  -6   5  634.56   13.04
   4   6   5  639.71   12.72
  -4  -6  -6  342.48    8.28
   4   6   6  338.26    8.06
   4  -6   6  335.63    8.35
  -4   6  -6  340.22    8.36
   4   6   7   35.04    2.45
  -4  -6  -7   31.48    2.66
  -4   6  -7   36.67    2.52
   4  -6   7   35.13    2.61
  -4  -6  -7   31.50    2.40
  -4  -6  -8    4.89    1.55
  -4   6  -8    6.69    1.70
   4  -6   8    6.98    1.79
  -4  -6  -8    5.38    1.70
  -4   6  -8    6.65    1.83
  -4   6  -9   40.23    2.97
  -4  -6  -9   42.18    3.13
  -4   6  -9   37.35    3.07
  -4  -6  -9   36.79    2.75
   4  -6   9   36.50    2.93
  -4   6 -10   87.53    4.38
  -4  -6 -10   87.92    4.20
   4  -6  10   79.18    4.28
  -4  -7  11    2.04    1.77
  -4   7  11    1.20    1.27
   4   7 -11    1.42    1.86
  -4   7  10    5.30    1.41
   4   7 -10    3.48    1.97
   4   7 -10    5.33    1.91
  -4   7  10    3.63    1.96
  -4  -7  10    5.98    2.02
  -4   7   9    9.61    1.48
  -4   7   9    7.60    2.07
   4   7  -9    9.25    2.12
   4   7  -9    9.22    2.06
  -4  -7   9    9.62    1.99
   4   7  -8    0.58    1.46
   4   7  -8    0.15    1.45
  -4  -7   8    0.63    1.54
  -4   7   8    1.20    0.96
  -4   7   8    0.46    1.53
  -4   7   7    1.49    1.46
   4   7  -7    0.21    0.87
   4   7  -7    0.64    1.33
  -4   7   7    0.68    0.89
   4   7  -6   83.29    2.75
  -4   7   6   79.74    2.72
   4   7  -6   88.67    3.47
  -4  -7   6   85.97    3.54
  -4   7   5   59.98    2.24
  -4   7   5   67.15    1.89
  -4  -7   5   62.76    2.84
   4   7  -5   65.24    2.38
  -4  -7   4   10.64    1.38
   4   7  -4    8.83    1.16
  -4   7   4   10.40    1.08
  -4  -7   4   10.51    1.48
  -4   7   4   11.60    0.91
  -4  -7   3   63.11    2.40
   4   7  -3   68.07    2.42
  -4  -7   2  233.38    5.52
   4   7  -2  238.81    5.47
  -4  -7   1  144.70    4.03
   4   7  -1  145.15    3.97
   4   7  -1  140.54    3.53
  -4   7   0    2.38    0.97
  -4  -7   0    2.37    1.01
  -4   7   0    1.91    0.94
   4   7   0    1.81    0.93
   4   7   0    3.05    0.79
  -4   7  -1  108.42    3.54
   4   7   1  118.33    3.72
  -4  -7  -1  116.63    3.76
  -4   7  -1  112.59    3.38
  -4   7  -2  395.94    6.88
   4   7   2  397.81    6.91
   4  -7   3  253.48    6.20
  -4   7  -3  262.15    6.75
  -4  -7  -4   34.86    1.98
   4   7   4   34.32    1.87
   4  -7   4   35.12    2.10
  -4   7  -4   32.30    2.25
  -4   7  -5    5.96    1.54
   4  -7   5    5.41    1.34
  -4  -7  -5    4.60    1.29
   4   7   5    5.64    1.33
  -4  -7  -5    5.60    1.48
  -4  -7  -6   67.29    3.21
  -4   7  -6   75.02    3.44
   4  -7   6   81.40    3.62
   4   7   6   77.09    3.30
  -4  -7  -7   43.30    3.05
   4   7   7   43.70    2.77
  -4   7  -7   42.43    2.77
   4  -7   7   42.10    2.85
  -4  -7  -7   44.76    2.70
  -4  -7  -8   29.36    2.39
  -4   7  -8   29.93    2.53
   4  -7   8   28.08    2.60
   4   7   8   27.79    2.43
  -4  -7  -8   28.38    2.67
  -4  -7  -9    2.22    1.31
  -4   7  -9    2.16    1.53
   4  -7   9    1.66    1.58
  -4  -7  -9    1.01    1.51
  -4   7  -9    4.06    1.69
  -4  -7 -10   -0.17    1.58
   4   8 -11    6.00    2.14
   4   8 -10   59.99    3.87
   4   8 -10   63.46    3.84
  -4  -8  10   67.90    3.96
  -4   8  10   62.73    3.95
  -4   8  10   63.75    2.80
   4   8  -9   95.35    4.43
  -4  -8   9   97.46    4.52
  -4   8   9  100.88    3.44
   4   8  -9  103.22    4.54
  -4   8   9   96.12    4.61
  -4   8   8    3.89    1.05
   4   8  -8    3.89    1.67
  -4   8   8    4.44    1.74
   4   8  -7   11.97    1.32
  -4   8   7   16.21    1.98
  -4  -8   7   15.88    2.10
   4   8  -7   18.85    2.03
  -4   8   7   15.73    1.30
   4   8  -6  131.59    3.73
  -4   8   6  122.04    3.08
  -4  -8   6  118.29    4.49
  -4   8   6  126.61    3.45
  -4  -8   6  126.10    4.44
   4   8  -5  175.36    4.46
   4   8  -5  172.94    5.21
  -4   8   5  169.17    4.08
  -4  -8   5  166.46    5.30
  -4   8   5  169.74    3.85
  -4  -8   5  163.00    4.90
  -4  -8   4   68.94    3.05
  -4  -8   4   61.12    2.63
  -4   8   4   64.33    2.07
   4   8  -4   59.65    2.41
  -4   8   4   63.28    2.14
  -4   8   3   18.00    1.19
   4   8  -3   20.13    1.50
   4   8  -2   63.86    2.48
  -4  -8   1   47.60    2.22
   4   8  -1   44.27    2.10
  -4   8   0  239.68    5.71
  -4   8   0  239.44    5.72
   4   8   0  237.98    5.93
  -4  -8   0  250.83    6.11
  -4   8  -1  264.81    6.32
   4   8   1  263.30    6.49
  -4  -8  -1  257.01    6.63
  -4   8  -1  271.01    6.24
  -4   8  -2  220.95    4.58
   4   8   2  222.32    4.77
  -4   8  -3    4.14    1.33
   4  -8   3    6.35    1.19
   4  -8   4   -0.32    1.16
  -4   8  -4   -0.78    1.05
  -4  -8  -4    0.39    0.83
  -4  -8  -5  517.33   10.86
   4   8   5  507.49   10.81
  -4   8  -5  513.19   11.72
  -4  -8  -5  517.50   11.72
   4  -8   5  498.82   11.13
  -4  -8  -6  550.55   11.86
  -4  -8  -6  545.80   12.70
   4  -8   6  576.12   12.39
  -4   8  -6  565.74   12.87
   4   8   6  556.84   11.96
  -4   8  -7   58.51    3.56
   4   8   7   53.87    2.99
  -4  -8  -7   59.79    3.45
  -4   8  -7   55.92    3.19
   4  -8   7   59.39    3.33
  -4  -8  -7   58.31    2.95
  -4  -8  -8   20.56    2.08
  -4   8  -8   23.81    2.39
   4  -8   8   22.54    2.44
   4   8   8   19.04    2.21
  -4  -8  -8   25.06    2.47
  -4  -8  -9   11.06    1.72
   4  -8   9   10.21    2.03
   4   8   9    8.90    1.90
  -4   8  -9    9.09    1.90
  -4  -8  -9   12.67    2.09
  -4  -9  10    1.79    1.91
  -4  -9  10    0.79    1.82
  -4   9  10    1.57    1.15
  -4   9  10    1.21    2.03
   4   9 -10    0.58    1.80
   4   9 -10    4.07    1.85
  -4   9   9    9.87    1.30
   4   9  -9    8.81    2.13
  -4   9   9    6.57    2.20
   4   9  -8   48.57    2.39
  -4   9   8   51.67    3.37
   4   9  -8   47.33    3.15
  -4   9   8   51.51    2.18
  -4  -9   8   57.50    3.40
   4   9  -7   57.90    2.58
   4   9  -7   71.72    3.44
  -4  -9   7   62.38    3.37
  -4   9   7   67.27    2.33
  -4  -9   7   67.18    3.38
   4   9  -6   57.21    2.49
  -4   9   6   56.32    2.02
   4   9  -6   56.30    3.12
  -4  -9   6   57.42    3.14
  -4   9   6   57.71    2.06
  -4  -9   6   56.33    2.98
  -4  -9   5    3.47    1.43
   4   9  -5    4.85    1.18
   4   9  -5    4.91    1.48
  -4   9   5    3.34    0.83
  -4  -9   5    3.95    1.55
  -4   9   5    3.63    0.86
  -4   9   4   67.22    2.17
  -4  -9   4   67.19    3.14
  -4  -9   4   66.57    2.81
  -4   9   4   70.06    2.32
   4   9  -4   69.84    2.72
  -4   9   3  119.42    3.27
   4   9  -3  126.23    3.69
   4   9  -2  234.61    5.74
  -4   9   1    1.22    0.79
  -4  -9   1    0.09    0.92
   4   9  -1    0.09    0.90
  -4   9   0  125.59    3.69
   4   9   0  128.65    3.98
  -4   9   0  123.19    3.84
  -4  -9   0  125.43    4.12
  -4   9  -1    1.70    1.10
  -4  -9  -1    0.77    1.14
  -4   9  -1    1.18    1.11
   4   9   1    1.13    1.20
   4   9   2   77.52    3.28
  -4   9  -2   72.56    3.05
  -4   9  -3  253.33    6.75
  -4  -9  -4   32.42    1.95
  -4   9  -4   33.23    2.30
   4  -9   4   33.19    2.21
  -4  -9  -5   29.63    2.04
   4   9   5   28.24    2.09
  -4  -9  -5   31.23    2.50
   4  -9   5   29.44    2.32
  -4   9  -5   33.97    2.58
  -4  -9  -6   27.79    2.08
  -4   9  -6   30.36    2.73
   4   9   6   30.04    2.32
  -4  -9  -6   33.11    2.62
   4  -9   6   32.55    2.54
  -4   9  -7   80.96    3.87
  -4  -9  -7   79.71    3.98
   4  -9   7   80.10    3.87
  -4   9  -7   83.69    4.13
   4   9   7   80.10    3.59
  -4  -9  -7   76.36    3.39
  -4  -9  -8   81.02    4.18
   4   9   8   78.21    3.80
  -4   9  -8   83.00    4.34
  -4   9  -8   87.42    4.14
   4  -9   8   83.42    4.08
  -4  -9  -8   79.88    3.60
  -4  -9  -9    9.02    1.60
  -4  -9  -9    4.79    1.65
   4  -9   9    7.90    2.00
  -4   9  -9    9.90    2.08
   4   9   9    7.69    1.82
  -4 -10  10   11.61    2.37
   4  10 -10   13.08    2.44
  -4  10  10   10.76    2.38
   4  10  -9   20.12    2.50
  -4  10   9   18.02    2.54
  -4 -10   9   23.71    2.57
  -4  10   9   21.44    1.52
  -4  10   8   16.36    1.26
  -4  10   8   15.90    2.32
  -4 -10   8   13.21    2.11
   4  10  -8   18.85    1.75
   4  10  -8   15.73    2.28
  -4 -10   8   11.54    2.12
  -4  10   7    3.50    0.83
   4  10  -7    3.87    1.18
  -4 -10   7    1.88    1.53
  -4  10   7    4.15    0.96
   4  10  -7    3.17    1.57
  -4 -10   7    1.89    1.54
  -4 -10   6   17.58    2.00
   4  10  -6   16.29    1.58
  -4  10   6   17.71    1.29
   4  10  -6   18.10    2.02
  -4  10   6   18.93    1.14
  -4 -10   6   15.80    2.05
   4  10  -5  161.77    5.18
  -4  10   5  166.00    3.70
  -4 -10   5  162.01    5.26
  -4  10   5  154.38    4.01
  -4 -10   5  161.03    4.94
   4  10  -5  162.72    4.58
  -4  10   4  310.33    6.15
  -4 -10   4  305.97    7.74
  -4 -10   4  302.45    7.28
  -4  10   4  307.60    6.63
   4  10  -4  312.68    7.17
  -4  10   3   69.32    2.56
  -4 -10   3   68.45    3.04
   4  10  -3   68.77    2.86
   4  10  -2    7.83    1.27
  -4  10   2    8.45    1.02
  -4  10   1  130.60    3.65
  -4 -10   1  135.23    4.24
   4  10  -1  140.25    4.21
  -4  10   0  416.18    8.72
  -4 -10   0  423.32    9.38
   4  10   0  416.20    9.21
  -4  10   0  410.93    9.07
   4  10   1  477.96    9.74
  -4  10  -1  476.16    9.59
  -4  10  -1  474.93    9.34
   4  10   2   26.66    2.07
  -4  10  -2   24.09    1.89
  -4  10  -3   19.13    1.88
  -4  10  -4    9.85    1.56
  -4 -10  -4   10.58    1.53
  -4 -10  -4    9.09    1.23
  -4 -10  -5  155.78    4.66
   4  10   5  157.39    4.93
   4 -10   5  161.91    5.27
  -4 -10  -5  167.78    5.63
  -4  10  -5  162.58    5.50
  -4 -10  -6  101.11    3.69
   4  10   6   99.34    3.96
  -4 -10  -6   99.81    4.38
  -4  10  -6   94.50    4.38
   4 -10   6   85.69    3.93
  -4 -10  -7    8.48    1.81
  -4 -10  -7    7.58    1.53
   4 -10   7    8.67    1.77
  -4  10  -7    9.03    1.92
   4  10   7   11.43    1.87
  -4  10  -7   11.99    2.09
   4  10   8    1.41    1.45
  -4 -10  -8    0.13    1.26
  -4 -10  -8   -0.60    1.40
   4 -10   8    0.36    1.61
  -4  10  -8    0.36    1.54
  -4  10  -8    3.72    1.73
  -4  10  -9    7.75    2.03
   4 -10   9    8.46    1.98
   4  10   9    7.53    1.93
   4  11 -10    5.06    2.15
  -4 -11  10    4.33    2.08
   4  11 -10    4.74    1.40
  -4  11   9    1.71    0.85
  -4 -11   9    0.75    1.80
   4  11  -9    1.93    1.28
  -4  11   9   -0.19    1.91
   4  11  -9   -1.48    1.81
  -4 -11   9    2.70    1.87
  -4  11   8    0.91    0.69
  -4  11   8    1.23    1.83
  -4 -11   8   -0.17    1.59
   4  11  -8   -0.84    1.77
   4  11  -8   -0.34    1.56
   4  11  -8    1.20    1.16
  -4 -11   8    1.42    1.65
  -4  11   7   10.70    0.88
  -4 -11   7   10.40    1.96
   4  11  -7   10.13    1.42
  -4  11   7   13.11    1.24
   4  11  -7    8.26    1.78
  -4 -11   7   12.15    2.00
   4  11  -6   52.26    2.62
  -4  11   6   48.39    2.13
   4  11  -6   47.68    2.86
  -4 -11   6   57.76    3.28
  -4 -11   6   52.45    2.96
  -4  11   6   50.44    1.61
  -4  11   5   32.22    1.25
  -4 -11   5   33.84    2.52
  -4 -11   5   30.97    2.31
  -4  11   5   32.50    1.79
   4  11  -5   39.54    2.57
   4  11  -5   34.98    2.15
  -4  11   4   16.83    1.46
   4  11  -4   20.00    1.78
  -4  11   4   15.43    0.97
  -4 -11   4   17.93    2.01
  -4  11   3   47.15    2.22
  -4  11   3   50.59    1.79
   4  11  -3   51.87    2.55
  -4  11   2  155.03    3.20
   4  11  -2  158.46    4.14
  -4  11   1   71.41    2.53
   4  11  -1   69.91    2.95
  -4  11   0    3.78    1.35
  -4  11   0    6.36    1.09
  -4 -11   0    3.05    1.31
   4  11   0    5.21    1.38
   4  11   1   97.26    3.60
  -4  11  -1   99.10    3.61
  -4  11  -1   93.96    3.27
   4  11   2  214.57    6.19
  -4  11  -2  224.94    6.01
  -4  11  -3  166.12    5.25
  -4  11  -4    4.33    1.35
  -4 -11  -4    5.84    1.48
  -4 -11  -4    5.13    1.12
  -4 -11  -5    2.15    1.37
  -4 -11  -5    2.37    1.14
  -4  11  -5    1.57    1.50
   4  11   5    1.73    1.52
   4 -11   5    0.99    1.48
   4  11   6   37.31    2.56
   4 -11   6   36.89    2.74
  -4 -11  -6   37.35    2.82
  -4  11  -6   36.67    2.89
  -4 -11  -6   37.73    2.26
   4  11   7   66.82    3.46
   4 -11   7   68.41    3.68
  -4 -11  -7   74.99    4.02
  -4  11  -7   59.28    3.69
  -4 -11  -7   69.62    3.09
  -4  11  -8   33.56    2.88
   4 -11   8   27.87    2.72
   4  11   8   34.95    2.72
  -4 -11  -8   34.89    2.97
  -4 -11  -8   35.65    2.35
  -4  11  -8   34.87    3.04
   4  11   9    6.08    1.93
  -4 -12  10   21.21    2.78
   4  12  -9   18.64    1.92
  -4 -12   9   21.75    2.58
  -4  12   9   20.40    2.70
   4  12  -9   25.83    2.77
   4  12  -9   18.46    2.64
  -4 -12   9   21.32    2.66
  -4 -12   8    1.89    1.69
   4  12  -8    0.70    1.81
   4  12  -8   -1.77    1.25
   4  12  -8    0.35    1.63
  -4 -12   8   -2.74    1.76
  -4 -12   7    3.85    1.61
   4  12  -7    2.63    1.30
   4  12  -7    2.73    1.56
  -4  12   7    1.37    0.96
  -4 -12   7    3.67    1.58
   4  12  -6   78.41    3.27
   4  12  -6   74.94    3.67
  -4  12   6   75.74    2.80
  -4 -12   6   69.85    3.48
  -4 -12   6   80.35    3.87
  -4 -12   5   66.90    3.15
  -4 -12   5   64.00    3.28
  -4  12   5   70.89    2.61
   4  12  -5   68.10    3.27
   4  12  -5   64.60    2.91
  -4  12   4   67.24    1.86
  -4 -12   4   74.78    3.42
   4  12  -4   69.26    3.02
  -4  12   4   67.24    2.69
  -4  12   3    0.26    0.62
   4  12  -3    1.19    1.19
  -4  12   3    0.36    1.01
  -4 -12   3    0.82    1.32
   4  12  -2   19.25    1.81
  -4 -12   2   22.69    1.84
  -4  12   2   23.25    1.34
   4  12  -1    3.89    1.20
  -4  12   1    3.83    0.91
  -4 -12   0   78.05    3.42
   4  12   0   80.40    3.39
  -4  12   0   82.05    3.38
  -4  12   0   74.74    2.82
  -4 -12  -1  142.94    4.93
   4  12   1  150.71    4.92
  -4  12  -1  157.79    4.95
  -4  12  -1  151.75    4.51
   4  12   2   74.37    3.49
  -4  12  -2   77.42    3.50
  -4  12  -2   75.79    3.25
  -4  12  -3    0.63    1.25
  -4  12  -4   13.61    1.87
  -4 -12  -4   11.59    1.89
  -4 -12  -4   11.57    1.39
  -4 -12  -5  122.80    3.92
   4  12   5  120.40    4.85
  -4  12  -5  117.78    4.76
  -4 -12  -5  126.27    5.01
   4  12   6  104.61    4.13
   4 -12   6   91.33    4.24
  -4  12  -6   98.98    4.48
  -4 -12  -6  106.19    4.71
  -4 -12  -6   98.11    3.56
   4 -12   7   15.45    2.30
  -4 -12  -7   15.33    1.75
   4  12   7   18.89    2.20
  -4 -12  -7   19.13    2.48
  -4  12  -7   15.06    2.33
   4 -12   8   14.59    2.33
  -4  12  -8   12.76    2.28
  -4 -12  -8    9.48    2.16
   4  12   8   13.93    2.05
  -4 -13   9    1.22    1.78
  -4 -13   9    1.17    1.76
   4  13  -9    0.13    1.24
   4  13  -9    0.59    1.60
   4  13  -9    1.19    1.98
  -4  13   9   -1.22    2.00
  -4 -13   8   15.60    2.37
   4  13  -8   17.43    1.90
  -4  13   8   17.25    1.54
   4  13  -8   15.88    2.28
  -4 -13   8   15.89    2.33
  -4 -13   7   30.69    2.61
   4  13  -7   32.30    2.30
   4  13  -7   29.35    2.60
  -4  13   7   32.13    1.94
  -4 -13   7   34.13    2.79
   4  13  -6   17.89    1.86
   4  13  -6   14.68    2.09
  -4  13   6   17.14    1.53
  -4 -13   6   19.32    2.24
  -4 -13   6   17.31    2.10
  -4  13   5    1.06    1.02
   4  13  -5    1.86    1.31
   4  13  -5   -0.14    1.35
  -4 -13   5    1.45    1.52
  -4  13   4    6.46    1.28
   4  13  -4    7.07    1.49
  -4 -13   4    8.10    1.73
  -4  13   4    6.47    0.51
   4  13  -3   15.57    1.84
  -4  13   3   15.24    1.60
  -4 -13   3   11.92    1.69
  -4  13   3   14.46    0.92
  -4  13   2   53.58    1.91
  -4 -13   2   48.69    2.64
   4  13  -2   47.10    2.65
   4  13  -2   45.76    2.57
   4  13  -1   15.62    1.83
   4  13  -1    3.53    1.03
  -4 -13   1    0.31    0.51
  -4  13   1   17.59    1.35
  -4  13   0   27.78    2.21
  -4  13   0   30.22    1.80
  -4 -13   0   28.46    2.26
   4  13   0   32.14    2.27
  -4  13  -1   20.18    1.81
  -4  13  -1   19.71    2.08
  -4 -13  -1   17.52    1.93
   4  13   1   21.66    2.10
  -4  13  -2   79.40    3.31
  -4  13  -2   79.05    3.60
  -4  13  -3  164.47    5.28
  -4 -13  -4  126.51    3.93
   4  13   4  132.26    4.99
  -4  13  -4  132.12    4.85
  -4 -13  -4  127.45    4.99
  -4 -13  -5    7.71    1.32
  -4 -13  -5    7.60    1.81
   4  13   5    6.92    1.85
  -4  13  -5    7.32    1.77
  -4 -13  -6   17.72    1.62
  -4 -13  -6   20.78    2.43
   4  13   6   17.93    2.09
  -4  13  -6   16.11    2.24
   4  13   7  173.26    5.89
   4 -13   7  174.91    6.20
  -4  13  -7  169.40    6.31
  -4 -13  -7  188.41    6.64
  -4 -13  -7  178.29    5.11
  -4  13  -8   76.41    4.28
   4 -13   8   82.15    4.33
   4  13   8   84.03    4.13
  -4 -14   9    4.61    1.98
   4  14  -9    4.64    1.55
   4  14  -9    2.67    1.89
  -4 -14   8    2.74    1.76
  -4  14   8    2.99    1.16
   4  14  -8    2.78    1.69
   4  14  -8    3.55    1.49
  -4 -14   8    3.65    1.81
   4  14  -7    0.26    1.29
   4  14  -7    3.55    1.67
  -4  14   7    0.96    1.08
  -4 -14   7   -0.36    1.61
  -4 -14   7   -0.66    1.66
   4  14  -6   -0.13    1.27
   4  14  -6   -1.08    1.61
  -4  14   6   -0.10    1.09
  -4 -14   6    0.16    1.55
   4  14  -5   24.40    2.11
  -4  14   5   29.16    1.96
  -4 -14   5   24.89    2.37
  -4 -14   4   99.32    4.07
  -4  14   4   96.36    3.51
   4  14  -4   91.27    3.78
  -4  14   3    3.54    0.55
   4  14  -3    1.76    1.31
  -4  14   3    1.39    1.16
  -4  14   3    2.57    0.54
  -4 -14   3    2.52    1.36
  -4  14   2    5.57    0.82
   4  14  -2    6.43    1.50
   4  14  -2    6.13    1.53
  -4  14   2    3.97    1.35
  -4 -14   2    5.75    1.42
  -4  14   1   53.12    3.00
   4  14  -1   56.29    2.95
   4  14  -1   54.90    2.82
  -4  14   1   55.11    2.17
   4  14   0   59.50    2.95
   4  14   0   51.53    2.59
  -4  14   0   57.02    3.05
  -4  14   0   56.40    2.28
  -4 -14  -1   74.41    3.64
   4  14   1   68.20    3.34
  -4  14  -1   70.08    3.51
  -4  14  -1   69.93    3.00
  -4  14  -2   12.74    1.61
  -4  14  -2   13.19    1.96
  -4  14  -3   15.88    1.85
  -4 -14  -4   38.92    2.11
   4  14   4   42.12    2.87
  -4  14  -4   39.51    2.72
  -4 -14  -4   46.83    3.08
  -4 -14  -5   13.76    1.46
  -4 -14  -5   15.04    2.16
   4  14   5   16.62    2.16
  -4  14  -5   16.85    2.19
  -4 -14  -6   -0.09    0.99
  -4 -14  -6    3.52    1.76
   4  14   6    0.37    1.52
  -4  14  -6    0.74    1.57
   4  14   7    7.33    1.89
  -4 -14  -7   10.58    2.32
  -4  14  -7    8.50    2.06
   4  14   8    4.10    1.82
   4  15  -9    0.45    1.44
   4  15  -8    7.09    1.70
   4  15  -8    7.40    1.95
  -4 -15   8    4.15    1.84
  -4 -15   8    5.52    1.92
   4  15  -7   10.13    1.76
   4  15  -7    7.98    1.86
  -4 -15   7    7.85    1.97
  -4  15   7    8.38    1.42
   4  15  -6   11.55    1.93
  -4 -15   6   10.55    1.91
   4  15  -6    8.22    1.67
  -4  15   6    9.30    1.44
  -4  15   5    5.31    1.30
   4  15  -5    6.75    1.62
  -4 -15   5    6.80    1.78
  -4  15   4    5.21    1.44
   4  15  -4    4.95    1.66
  -4 -15   4    4.08    1.59
   4  15  -3   24.00    2.23
  -4  15   3   25.88    2.10
  -4  15   3   24.51    0.85
  -4 -15   3   24.33    2.14
  -4  15   2   38.82    2.54
  -4 -15   2   43.61    2.57
   4  15  -2   46.84    2.82
  -4  15   2   48.20    1.73
   4  15  -2   44.95    2.81
  -4  15   1   79.58    3.85
  -4 -15   1   82.63    3.35
   4  15  -1   82.26    3.69
   4  15  -1   84.07    3.62
  -4  15   1   86.28    2.78
   4  15   0    0.75    1.36
  -4  15   0    1.02    1.52
  -4 -15   0    0.10    0.28
   4  15   0    0.84    1.33
  -4  15   0    2.13    1.11
   4  15   1   36.73    2.65
  -4 -15  -1   40.41    2.80
  -4  15  -1   42.70    2.92
  -4  15  -2   38.33    2.80
  -4  15  -2   34.61    2.35
  -4  15  -3   32.09    2.38
  -4 -15  -4   23.46    1.69
  -4 -15  -4   18.04    2.32
   4  15   4   22.46    2.40
  -4  15  -4   23.43    2.32
  -4 -15  -5    0.34    0.95
  -4 -15  -5   -0.76    1.65
   4  15   5    0.91    1.52
  -4  15  -5   -0.17    1.47
  -4 -15  -6   -0.20    1.71
   4  15   6   -0.19    1.71
  -4  15  -6   -0.75    1.70
   4  15   7   69.21    3.73
   4  16  -9    6.79    1.77
   4  16  -8   -1.85    1.52
  -4 -16   8    1.82    1.85
   4  16  -7   -1.95    1.59
   4  16  -7   -1.24    1.57
  -4  16   7    0.79    1.19
  -4 -16   7    0.19    1.61
   4  16  -6   15.21    2.01
   4  16  -6   15.57    2.13
  -4  16   6   15.06    1.72
  -4 -16   6   16.74    2.25
  -4  16   5    7.15    1.53
   4  16  -5    7.80    1.66
  -4 -16   5    7.60    1.75
  -4  16   4   20.42    1.92
   4  16  -4   17.74    2.04
  -4 -16   4   18.38    2.12
   4  16  -3   -0.72    1.41
  -4  16   3    0.50    1.30
  -4 -16   3   -1.20    1.48
   4  16  -2    5.17    1.59
  -4  16   2    7.43    1.69
  -4 -16   2    4.16    1.39
  -4  16   2    5.48    0.73
   4  16  -2    6.95    1.64
   4  16  -1    0.14    1.36
   4  16  -1    0.41    1.41
  -4 -16   1   -0.78    1.21
  -4  16   1    0.13    0.81
  -4  16   1    0.78    1.61
   4  16   0    9.56    1.67
  -4  16   0   12.76    2.06
  -4  16   0    9.23    1.29
   4  16   0   11.67    1.88
   4  16   1   33.47    2.49
  -4  16  -1   33.75    2.68
   4  16   1   28.93    2.40
  -4  16  -1   25.55    1.98
  -4  16  -2   13.74    2.20
  -4  16  -2   13.03    1.69
  -4  16  -3   -0.56    1.27
  -4 -16  -4   14.52    1.44
  -4 -16  -4   12.28    2.10
   4  16   4   11.08    2.04
  -4  16  -4   15.63    2.08
  -4 -16  -5   24.78    2.60
   4  16   5   25.40    2.61
  -4  16  -5   26.22    2.59
  -4 -16  -6   14.61    2.24
   4  16   6   13.34    2.32
  -4  16  -6   12.91    2.14
   4  16   7    4.03    1.89
   4  17  -8   12.22    1.98
   4  17  -7   11.28    2.07
   4  17  -7   11.59    1.98
  -4  17   7   11.39    1.67
  -4 -17   7   12.47    2.15
   4  17  -6    7.48    1.78
  -4  17   6    7.33    1.49
  -4 -17   6    6.56    1.81
  -4  17   5    3.00    1.36
   4  17  -5    0.92    1.50
  -4 -17   5    0.82    1.52
  -4  17   4    1.83    1.37
   4  17  -4    0.46    1.46
  -4 -17   4    3.14    1.57
   4  17  -3   20.53    2.22
  -4  17   3   23.75    2.23
  -4 -17   3   23.82    2.21
   4  17  -2   15.39    2.10
  -4  17   2   15.75    2.00
   4  17  -2   19.13    2.16
  -4  17   2   17.31    0.94
  -4 -17   2   18.97    1.92
  -4  17   1   20.86    2.33
   4  17  -1   17.54    2.13
   4  17  -1   20.23    2.19
  -4  17   1   19.52    2.12
  -4  17   1   18.12    1.34
  -4 -17   1   18.03    1.80
   4  17   0   17.21    2.11
  -4  17   0   17.49    2.29
  -4 -17   0   15.51    1.54
  -4  17   0   17.53    1.55
   4  17   0   17.05    2.18
  -4  17  -1    3.76    1.73
  -4 -17  -1    0.29    0.58
   4  17   1    5.68    1.80
  -4  17  -1    4.31    1.29
   4  17   1    2.18    1.59
  -4  17  -2   11.66    2.04
  -4  17  -2    8.63    1.54
  -4  17  -3   40.97    2.69
  -4 -17  -4   79.62    4.25
   4  17   4   72.96    3.97
  -4  17  -4   75.24    3.76
  -4 -17  -5    8.71    2.12
   4  17   5    6.25    1.91
  -4  17  -5    5.89    1.85
  -4  17  -6    0.98    1.69
   4  18  -8    0.86    1.48
   4  18  -7    1.01    1.53
   4  18  -7    0.19    1.52
  -4 -18   7    0.59    1.65
   4  18  -6    1.16    1.59
  -4  18   6    1.18    1.41
  -4  18   5    2.69    1.40
   4  18  -5    1.31    1.47
  -4 -18   5    3.69    1.69
  -4  18   4   26.09    2.33
   4  18  -4   23.63    2.45
  -4 -18   4   27.85    2.47
   4  18  -3    1.30    1.46
  -4  18   3    0.15    1.39
  -4 -18   3    1.69    1.35
   4  18  -2    1.61    1.56
   4  18  -2    1.46    1.61
  -4  18   2   -0.30    1.58
  -4  18   2    0.99    0.41
  -4 -18   2    0.38    1.29
   4  18  -1   15.64    2.12
  -4  18   1   16.59    2.32
   4  18  -1   18.63    2.25
  -4 -18   1   14.99    1.69
  -4  18   1   21.82    2.29
  -4  18   1   19.91    1.33
   4  18   0   13.15    2.10
  -4  18   0    7.83    1.97
  -4 -18   0   10.51    1.48
  -4  18   0   10.86    1.35
   4  18   0    8.92    1.89
  -4  18  -1   13.45    2.28
  -4  18  -1   17.84    1.77
   4  18   1   17.63    2.26
   4  18   1   12.89    2.09
  -4  18  -2    1.48    1.75
  -4  18  -2    0.76    1.30
  -4  18  -3   -0.73    1.42
  -4  18  -4    4.90    1.69
  -4 -18  -4    4.50    1.79
   4  18   4    4.07    1.74
  -4  18  -5   -0.54    1.58
   4  19  -6    9.13    2.04
  -4  19   6    9.15    1.73
  -4 -19   6    9.28    1.97
  -4  19   5    4.90    1.64
   4  19  -5    4.50    1.74
  -4 -19   5    4.11    1.80
  -4  19   4    3.17    1.59
   4  19  -4    3.63    1.78
  -4 -19   4   -0.31    1.50
   4  19  -3   16.19    2.27
  -4  19   3   14.63    2.06
  -4 -19   3   18.22    2.08
   4  19  -2   14.16    2.12
   4  19  -2   21.82    2.49
  -4  19   2   15.76    2.14
  -4 -19   2   20.01    2.06
  -4  19   2   20.05    2.55
   4  19  -1    9.46    1.93
  -4  19   1   10.65    2.13
   4  19  -1    9.63    1.99
  -4  19   1   11.11    2.00
  -4  19   1   10.50    1.04
  -4 -19   1    9.24    1.59
   4  19   0    0.17    1.65
  -4  19   0    0.19    1.90
  -4  19   0    1.18    1.03
  -4 -19   0   -0.11    1.09
   4  19   0    1.05    1.48
   4  19   1   20.20    2.33
  -4  19  -1   24.60    1.88
  -4  19  -1   25.95    2.75
   4  19   1   22.50    2.50
  -4  19  -2   29.95    2.32
  -4  19  -2   33.49    3.05
   4  19   2   37.76    2.93
  -4  19  -3   34.29    2.56
  -4  19  -4    0.17    1.39
  -4  19  -5    0.55    1.55
  -4 -20   6    4.56    1.81
  -4  20   5    0.15    1.42
   4  20  -5    2.02    1.65
  -4 -20   5    0.53    1.51
  -4  20   4    1.93    1.61
   4  20  -4   -1.46    1.75
  -4 -20   4   -1.13    1.61
   4  20  -3    0.54    1.65
  -4  20   3    0.83    1.55
  -4 -20   3    0.73    1.47
   4  20  -2   -0.36    1.66
  -4  20   2    1.72    1.61
   4  20  -2    2.91    1.84
  -4 -20   2    1.73    1.43
  -4  20   2    3.68    2.05
   4  20  -1   -0.36    1.66
  -4  20   1    0.61    1.84
   4  20  -1    0.36    1.67
  -4  20   1    1.09    1.67
  -4 -20   1    0.48    1.24
   4  20   0    1.75    1.66
  -4  20   0    1.20    1.78
  -4  20   0   -0.76    1.68
  -4 -20   0   -0.75    1.15
   4  20   0    0.55    1.58
   4  20   1   -1.23    1.66
  -4  20  -1    0.61    1.85
   4  20   1    1.14    1.66
  -4  20  -2    2.70    1.92
  -4  20  -2    3.22    1.38
  -4  20  -3   -0.60    1.45
  -4  20  -4   -1.85    1.62
  -4  20  -5    3.58    1.80
  -4 -21   5    5.00    1.77
  -4  21   5    4.74    1.71
  -4  21   4    0.86    1.52
  -4 -21   4    3.93    1.63
  -4  21   3    8.29    1.90
  -4 -21   3   11.51    1.84
  -4  21   2    6.69    2.17
  -4  21   2    8.40    1.96
   4  21  -2    7.51    2.11
  -4  21   1    2.14    1.89
   4  21  -1    3.39    1.98
  -4  21   1    3.83    1.81
  -4  21   0    2.76    2.00
  -4  21   0    1.41    1.76
   4  21   1    0.93    1.74
  -4  21  -1   -0.21    1.85
   4  21   2   10.18    2.06
  -4  22   4    0.90    1.50
  -4  22   3   -0.19    1.54
  -4  22   2    1.75    1.66
   4  22  -2    2.44    1.96
   4  22  -1    5.17    2.04
   4  22   0    0.79    1.72
   4  22   1   -1.18    1.70
  -5   0  12   28.56    2.78
   5   0 -12   28.91    2.78
  -5   0  11    2.56    1.61
   5   0 -11    3.36    1.56
   5   0 -10   -1.23    1.52
  -5   0  10    0.79    1.54
  -5   0   9   51.72    3.04
  -5   0   8  114.99    4.34
  -5   0   7  102.49    3.90
  -5   0   6    9.66    1.51
  -5   0   5   42.93    2.31
  -5   0   4  240.60    6.16
  -5   0   3  191.12    3.85
  -5   0   2  161.30    3.69
  -5   0   1   21.21    1.27
  -5   0   0  284.01    6.36
  -5   0  -1  453.66    9.49
  -5   0  -2  480.10   10.29
   5   0   2  487.49    8.84
  -5   0  -3  676.07   13.89
  -5   0  -3  680.26   13.83
  -5   0  -4    1.53    1.11
  -5   0  -4    0.13    0.29
  -5   0  -5  102.16    4.08
  -5   0  -6  980.27   19.76
  -5   0  -7  626.49   14.24
  -5   0  -7  620.17   14.08
  -5   0  -8  116.19    5.04
  -5   0  -8  119.75    4.98
  -5   0  -9    0.41    1.53
  -5   0  -9    2.72    1.61
  -5  -1  12    1.91    1.72
  -5   1  12    1.44    1.68
   5   1 -12    1.51    1.69
  -5   1  11    0.33    1.45
   5   1 -11    1.73    1.57
  -5  -1  11   -1.58    1.59
   5   1 -10    7.58    1.77
  -5  -1  10    6.36    1.76
  -5   1  10    5.63    1.76
   5   1  -9    7.90    1.72
  -5  -1   9    7.91    1.78
  -5   1   9    8.89    1.74
  -5  -1   8   -0.27    1.47
  -5   1   8   -0.51    1.41
  -5   1   7    5.96    1.43
  -5  -1   7    8.05    1.62
  -5   1   6  136.91    4.39
  -5  -1   6  139.27    4.54
  -5   1   6  134.59    4.22
  -5   1   5    1.92    0.96
  -5   1   5    1.09    1.01
  -5  -1   5    1.60    1.00
  -5   1   4    0.66    1.22
  -5  -1   4    0.40    1.13
  -5   1   4    1.68    0.89
  -5   1   3   16.92    1.05
  -5  -1   3   15.34    0.92
  -5   1   2    6.27    0.56
  -5   1   2    6.03    0.77
  -5  -1   2    6.49    0.83
  -5  -1   1   13.16    1.06
  -5   1   1   12.40    1.00
  -5   1   0   38.19    1.87
  -5  -1   0   39.38    1.95
  -5   1  -1   80.14    1.87
  -5  -1  -1   86.52    3.04
  -5   1  -2   21.34    1.06
  -5  -1  -2   19.71    1.74
   5  -1   2   21.28    1.10
  -5   1  -3   23.18    1.33
  -5  -1  -3   23.51    1.88
  -5   1  -4    3.50    1.35
  -5  -1  -4    3.41    1.16
  -5  -1  -4   -0.13    0.30
  -5   1  -4    2.17    0.84
  -5   1  -5   23.90    2.08
  -5  -1  -5   21.17    1.98
  -5   1  -6   12.30    1.96
  -5  -1  -6   21.44    2.22
  -5   1  -7    5.73    1.75
  -5  -1  -7    4.01    1.58
  -5   1  -7    1.58    1.40
  -5  -1  -7    3.02    1.53
  -5   1  -8    8.57    1.71
  -5  -1  -8    7.67    1.74
  -5   1  -8    6.88    1.68
  -5  -1  -8    6.41    1.68
  -5   1  -9    6.65    1.80
  -5  -1  -9    5.80    1.67
  -5   1  -9    1.87    1.62
  -5  -1  -9    2.74    1.69
  -5   2  12   13.00    2.10
  -5   2  11    0.96    1.52
   5   2 -11    2.13    1.66
  -5  -2  11   -0.54    1.64
   5   2 -10   14.78    2.16
  -5  -2  10   14.14    2.05
  -5   2  10   13.89    1.96
   5   2  -9   59.38    3.30
  -5  -2   9   57.82    3.34
  -5   2   9   62.19    3.19
  -5  -2   8   34.41    2.66
  -5   2   8   40.69    2.54
  -5   2   7   58.24    2.87
  -5  -2   7   62.86    3.16
  -5   2   7   56.87    2.96
  -5   2   6    4.42    1.24
  -5  -2   6    2.51    1.30
  -5   2   5   13.25    1.34
   5   2  -5    9.56    0.52
  -5   2   5   14.20    1.48
  -5  -2   5   12.81    1.53
   5   2  -4  281.87    5.39
  -5   2   4  291.67    6.86
  -5  -2   4  286.53    6.99
  -5   2   4  287.92    6.19
  -5  -2   3  543.00    9.79
  -5   2   3  546.91    9.99
  -5   2   3  532.50    9.46
  -5   2   2  361.21    6.87
  -5  -2   2  367.34    7.08
  -5  -2   2  345.54    6.22
  -5   2   1    0.78    0.36
  -5  -2   1    1.28    0.73
  -5  -2   0  401.33    8.40
  -5  -2  -1  712.74   13.84
  -5  -2  -2  877.03   17.14
   5  -2   2  893.28   15.69
  -5   2  -2  898.50   15.69
   5  -2   3  219.29    4.79
  -5   2  -3  212.66    4.76
  -5   2  -4    3.15    1.30
  -5  -2  -4    1.62    1.15
  -5   2  -4    2.13    0.88
  -5   2  -5  242.29    7.01
  -5  -2  -5  255.86    6.96
  -5   2  -5  253.68    6.17
  -5  -2  -6  689.11   14.72
  -5   2  -6  685.45   13.81
  -5  -2  -6  682.97   14.98
  -5   2  -6  681.05   14.92
  -5   2  -7  242.07    7.39
  -5  -2  -7  250.96    7.61
  -5   2  -7  237.76    7.43
  -5  -2  -7  255.55    7.42
  -5   2  -8   67.17    3.79
  -5  -2  -8   67.83    3.84
  -5   2  -8   69.17    3.87
  -5  -2  -8   71.11    3.81
  -5   2  -9    2.54    1.64
  -5  -2  -9    0.39    1.51
  -5   2  -9    0.21    1.68
  -5  -2  -9    0.42    1.59
  -5   3  12    2.49    1.55
  -5   3  11    4.32    1.51
   5   3 -11    4.73    1.75
  -5  -3  11    5.05    1.73
   5   3 -10    3.17    1.60
  -5  -3  10    1.39    1.63
  -5   3  10    1.69    1.37
   5   3  -9    1.44    0.45
   5   3  -9    4.11    1.65
  -5  -3   9    5.41    1.79
  -5   3   9    3.34    1.42
   5   3  -8    0.97    0.40
   5   3  -8    2.50    1.47
  -5   3   8    0.14    1.44
  -5  -3   8    1.31    1.49
  -5   3   8   -0.12    1.26
   5   3  -7   49.24    2.65
  -5   3   7   54.84    2.68
  -5  -3   7   54.84    3.02
  -5   3   7   56.02    2.87
  -5   3   6   29.49    1.93
   5   3  -6   26.25    0.97
  -5  -3   6   26.21    2.13
  -5   3   6   27.73    2.00
   5   3  -5   60.76    1.63
  -5   3   5   60.21    2.61
  -5   3   5   55.97    2.45
  -5   3   4    0.70    1.13
  -5   3   4    1.07    0.94
  -5  -3   4    0.43    0.51
   5   3  -4    1.88    0.69
  -5  -3   3   64.51    2.01
   5   3  -3   60.93    1.92
  -5   3   3   59.09    1.67
   5   3  -3   64.01    2.03
  -5  -3   3   62.39    1.92
  -5  -3   2    0.52    0.70
   5   3  -2    0.17    0.70
   5   3  -2    0.40    0.32
  -5   3   1  303.60    5.75
  -5  -3   1  300.21    6.55
  -5  -3   0  117.83    3.59
  -5  -3  -1   13.65    1.47
  -5  -3  -2   28.04    1.96
   5  -3   2   28.46    1.39
  -5   3  -3   45.70    1.86
   5  -3   3   46.63    1.90
  -5  -3  -4   89.36    3.65
  -5   3  -4   95.92    3.13
   5  -3   4   96.09    3.17
  -5   3  -5    1.04    1.29
  -5  -3  -5    1.20    1.19
  -5   3  -5    0.96    1.00
  -5   3  -6    1.47    1.50
  -5  -3  -6    0.15    1.35
  -5   3  -6    0.67    1.23
  -5  -3  -6    2.64    1.47
  -5   3  -7   10.95    1.98
  -5  -3  -7   13.09    1.93
  -5  -3  -7   13.15    2.07
  -5   3  -7   10.85    1.74
  -5   3  -8    1.78    1.43
  -5  -3  -8    3.52    1.45
  -5   3  -8    0.19    1.37
  -5  -3  -8   -0.20    1.46
  -5   3  -9    4.10    1.71
  -5  -3  -9    8.09    1.70
  -5   3  -9    3.94    1.81
  -5  -3  -9    3.18    1.74
  -5   4  12   19.84    2.26
  -5   4  11    0.29    1.38
   5   4 -11    0.93    1.63
  -5  -4  11    1.16    1.64
   5   4 -10    0.51    1.57
  -5  -4  10    2.15    1.72
  -5   4  10    0.95    1.39
   5   4  -9   54.20    3.31
  -5   4   9   60.40    3.51
  -5  -4   9   60.23    3.44
  -5   4   9   55.21    2.95
   5   4  -9   51.60    1.69
   5   4  -8  107.47    4.11
   5   4  -8  105.87    4.28
  -5  -4   8  102.98    4.30
  -5   4   8  104.88    3.87
  -5   4   8   94.54    4.06
   5   4  -8   94.93    2.46
   5   4  -7   84.50    3.44
  -5   4   7   82.05    3.25
  -5  -4   7   81.73    3.78
   5   4  -7   78.93    2.13
  -5   4   7   80.04    3.49
   5   4  -6    4.30    0.66
  -5   4   6    5.02    1.24
  -5   4   6    4.25    1.35
  -5  -4   6    4.08    1.44
  -5   4   5  231.72    4.36
   5   4  -5  231.22    2.90
  -5   4   4  440.12    9.42
   5   4  -4  460.52    8.54
  -5  -4   3  352.87    7.04
   5   4  -3  361.06    7.05
  -5  -4   3  345.53    6.82
   5   4  -3  347.81    6.85
   5   4  -2   38.22    1.70
   5   4  -2   38.31    1.24
  -5  -4   2   35.92    1.69
  -5  -4   1   13.55    1.22
   5   4  -1   14.62    1.26
  -5   4   1   12.48    0.93
   5   4   0  249.96    5.96
  -5  -4   0  244.08    5.92
  -5   4   0  246.46    5.05
  -5  -4  -1  541.70   10.81
   5   4   1  507.72    8.98
  -5   4  -2  579.93   12.12
  -5  -4  -2  573.83   12.01
   5   4   2  572.13   10.35
   5   4   3  184.80    3.25
   5  -4   3  181.55    3.60
   5  -4   4   13.03    1.40
  -5  -4  -4   11.79    1.48
  -5   4  -4   15.87    1.42
  -5  -4  -5   55.99    2.95
   5  -4   5   56.36    2.70
  -5   4  -5   56.56    2.59
  -5   4  -6  444.15   10.05
  -5  -4  -6  456.03   10.64
  -5  -4  -6  449.64   11.10
   5  -4   6  461.32   10.24
  -5   4  -6  446.72   11.02
  -5   4  -7  434.46   10.15
  -5  -4  -7  452.47   11.22
  -5   4  -7  436.72   11.13
  -5  -4  -7  438.07   10.69
  -5   4  -8   71.17    3.48
  -5  -4  -8   70.91    3.95
  -5   4  -8   74.55    4.07
  -5  -4  -8   67.12    3.65
  -5  -4  -9   -0.19    1.56
  -5   4  -9    3.32    1.80
  -5  -4  -9    1.07    1.59
  -5   5  11    2.96    1.38
   5   5 -11    5.18    1.81
  -5  -5  11    4.16    1.73
   5   5 -10   33.62    2.87
  -5   5  10   29.78    2.87
  -5   5  10   34.59    2.45
  -5  -5  10   30.93    2.85
   5   5  -9   22.22    2.37
  -5   5   9   24.81    2.54
  -5  -5   9   24.01    2.46
   5   5  -9   25.24    2.43
  -5   5   9   18.52    1.98
   5   5  -9   23.59    1.30
  -5   5   8   -0.14    1.52
   5   5  -8    1.00    0.72
   5   5  -8    0.15    1.38
   5   5  -8    2.28    1.45
  -5  -5   8    1.40    1.41
  -5   5   8   -0.54    1.25
   5   5  -7    2.56    1.48
   5   5  -7    4.26    0.79
  -5   5   7    0.12    1.33
  -5   5   7    2.47    1.26
  -5  -5   7    0.86    1.43
  -5   5   6  213.11    4.82
  -5   5   6  209.96    4.40
  -5  -5   6   47.12    2.78
   5   5  -6  213.38    3.23
   5   5  -6   15.30    1.79
   5   5  -5    3.58    0.77
  -5   5   5    5.49    1.29
  -5   5   5    3.47    1.14
  -5   5   4    0.43    0.37
  -5  -5   4    0.97    0.95
  -5   5   4    0.24    1.03
   5   5  -4    0.63    0.77
  -5  -5   3    0.05    0.76
   5   5  -3    1.46    0.82
   5   5  -3   -0.70    0.86
  -5  -5   2    5.79    0.98
   5   5  -2    6.90    1.02
  -5  -5   1    5.49    1.02
   5   5  -1    7.53    1.05
  -5  -5   0   13.74    1.42
   5   5   0   13.95    1.48
   5   5   0   10.81    0.66
  -5   5   0   13.57    1.04
   5   5   1   14.09    0.82
   5   5   1   15.99    1.60
  -5  -5  -1   14.79    1.60
  -5   5  -2    1.71    1.31
   5   5   2    0.75    0.68
  -5  -5  -2    2.13    1.33
   5  -5   3   13.57    1.19
  -5   5  -3   12.48    1.56
   5   5   3   12.70    1.04
  -5  -5  -4   28.41    2.03
  -5   5  -4   22.37    2.11
  -5   5  -4   27.12    1.75
   5   5   4   26.15    1.64
   5  -5   4   25.64    1.77
  -5  -5  -5   93.32    3.81
   5   5   5   85.92    3.21
  -5   5  -5   91.04    3.39
   5  -5   5   89.42    3.45
  -5  -5  -6   27.53    2.28
  -5   5  -6   22.40    2.03
   5  -5   6   22.36    2.07
  -5  -5  -6   24.35    2.47
  -5   5  -7    0.19    1.60
  -5  -5  -7    0.62    1.39
   5  -5   7    2.25    1.47
  -5  -5  -7    2.58    1.48
  -5   5  -7    1.49    1.43
  -5   5  -8   14.94    2.22
  -5  -5  -8   15.12    1.99
   5  -5   8   14.25    2.03
  -5   5  -8   18.76    2.12
  -5  -5  -8   14.41    2.11
  -5   5  -9   42.32    3.03
  -5  -5  -9   46.99    3.49
  -5  -5  -9   44.49    3.09
   5  -5   9   41.25    3.04
  -5   6  11    1.88    1.35
  -5   6  11    0.41    1.90
  -5  -6  11    0.81    1.68
   5   6 -10    4.86    1.84
   5   6 -10    5.25    1.77
  -5   6  10    4.81    2.04
  -5  -6  10    8.14    2.02
   5   6  -9   21.24    1.36
  -5   6   9   20.00    2.38
   5   6  -9   19.87    2.42
   5   6  -9   24.70    2.47
  -5  -6   9   22.81    2.49
  -5   6   9   21.50    1.94
   5   6  -8   16.11    2.04
  -5   6   8   15.30    2.06
   5   6  -8   16.83    1.98
  -5  -6   8   15.60    2.18
  -5   6   8   13.20    1.63
   5   6  -8   16.46    1.22
  -5   6   7   76.22    3.00
  -5  -6   7   76.13    3.66
   5   6  -7   74.49    2.40
   5   6  -7   79.45    3.42
   5   6  -7   69.63    3.42
   5   6  -6   12.79    1.11
  -5   6   6    9.99    1.65
  -5   6   6   13.35    1.37
   5   6  -5    4.38    0.87
  -5  -6   5    4.47    1.20
  -5   6   5    4.85    1.11
  -5   6   4  161.36    4.37
   5   6  -4  159.21    3.99
  -5  -6   4  163.40    4.22
  -5   6   4  159.03    3.34
  -5  -6   3  503.73   10.80
   5   6  -3  500.11    9.67
  -5  -6   3  480.65    9.35
  -5  -6   2  137.64    3.40
   5   6  -2  138.26    3.33
   5   6  -1   24.73    1.66
  -5  -6   1   20.61    1.58
   5   6   0  226.78    5.76
   5   6   0  224.80    4.57
  -5  -6   0  227.96    5.83
  -5   6   0  233.07    5.17
  -5   6  -1  915.40   17.66
   5   6   1  935.86   17.66
  -5  -6  -1  920.76   17.69
  -5   6  -2 1084.60   20.32
   5   6   2 1068.94   18.65
  -5  -6  -2 1046.45   20.26
  -5   6  -3    4.54    1.24
   5   6   3    5.22    0.89
   5  -6   3    4.96    1.00
   5   6   4    1.14    0.97
   5  -6   4    1.44    1.05
  -5   6  -4    2.83    1.42
  -5  -6  -4    2.74    1.25
  -5  -6  -5  363.36    8.96
  -5   6  -5  380.87    8.68
   5   6   5  378.90    8.35
   5  -6   5  386.81    8.75
  -5   6  -5  359.70    9.46
  -5  -6  -6  317.26    8.22
  -5  -6  -6  328.79    8.85
   5   6   6  311.17    7.63
  -5   6  -6  316.76    7.95
   5  -6   6  325.48    8.10
  -5  -6  -7  170.15    6.16
   5  -6   7  178.34    5.68
  -5   6  -7  171.42    5.52
  -5  -6  -7  169.79    5.69
  -5   6  -8   18.37    2.37
  -5   6  -8   18.88    2.11
  -5  -6  -8   14.32    1.91
   5  -6   8   16.31    2.12
  -5  -6  -8   18.68    2.39
  -5  -6  -9    1.45    1.62
   5  -6   9    3.41    1.77
  -5  -6 -10   49.83    3.56
   5   7 -11    5.10    2.06
  -5   7  10   -0.23    1.20
   5   7 -10   -0.18    1.72
   5   7 -10   -0.93    1.63
  -5   7  10    2.45    1.93
  -5  -7  10    0.19    1.66
   5   7  -9    0.96    1.67
  -5   7   9    0.68    1.68
   5   7  -9    0.82    0.90
   5   7  -9    2.89    1.77
  -5  -7   9    1.79    1.62
  -5   7   9    0.10    1.14
   5   7  -8    3.11    0.95
   5   7  -8    5.46    1.69
   5   7  -8    4.25    1.66
  -5   7   8    4.71    1.85
  -5  -7   8    3.65    1.81
  -5   7   8    2.39    1.11
   5   7  -7   16.82    1.98
  -5   7   7   19.29    1.67
  -5   7   7   15.29    2.07
   5   7  -7   20.06    1.39
   5   7  -6    8.22    1.09
  -5  -7   6   11.16    1.61
  -5   7   6   10.20    1.29
  -5   7   5  120.28    3.55
  -5   7   5  110.49    2.50
   5   7  -5  117.30    3.32
  -5  -7   5  119.16    3.79
  -5   7   4   63.58    1.90
  -5   7   4   62.17    2.47
  -5  -7   4   56.07    2.95
   5   7  -4   66.45    2.41
  -5  -7   4   63.07    2.49
  -5  -7   3    0.12    1.21
   5   7  -3    3.31    1.03
  -5  -7   2    1.22    0.95
  -5  -7   2    1.09    0.94
   5   7  -2    1.80    0.90
   5   7  -1  377.55    8.18
  -5  -7   1  375.09    8.32
   5   7   0  265.71    6.59
   5   7   0  271.31    5.55
  -5   7   0  272.40    6.10
  -5  -7   0  285.16    6.79
  -5  -7  -1   16.83    1.69
  -5   7  -1   17.39    1.77
  -5   7  -2   32.87    2.23
  -5  -7  -2   27.85    2.21
   5   7   2   28.13    2.23
  -5   7  -3   64.89    2.99
   5   7   3   66.17    2.21
  -5  -7  -4  321.00    7.89
   5  -7   4  323.08    7.62
   5   7   4  328.29    7.23
  -5   7  -4  314.81    8.35
  -5  -7  -5   81.41    3.55
   5  -7   5   80.27    3.40
   5   7   5   81.91    3.14
  -5   7  -5   83.42    3.96
  -5   7  -6    0.35    1.62
   5  -7   6   -0.13    1.31
  -5  -7  -6   -0.14    1.27
   5   7   6   -0.34    1.20
  -5   7  -6    1.68    1.35
  -5  -7  -6    0.18    1.34
  -5   7  -7   29.00    2.32
  -5  -7  -7   24.21    2.29
   5  -7   7   27.60    2.34
   5   7   7   34.06    2.41
  -5  -7  -7   30.30    2.67
  -5  -7  -8    7.50    1.68
   5  -7   8    8.87    1.84
  -5   7  -8    8.21    1.70
  -5  -7  -8    8.02    1.92
  -5   7  -9   45.46    3.18
   5  -7   9   43.43    3.22
  -5  -7  -9   45.76    3.17
   5   8 -11    2.00    1.92
  -5   8  10    1.95    1.17
  -5   8  10    2.09    1.79
   5   8 -10    3.09    1.87
   5   8 -10    1.33    1.63
  -5  -8  10   -0.40    1.81
   5   8  -9   40.33    2.02
   5   8  -9   47.87    3.18
   5   8  -9   46.49    3.24
  -5  -8   9   52.07    3.41
  -5   8   9   39.68    2.25
  -5  -8   9   45.05    3.14
  -5   8   9   52.07    3.38
  -5   8   8   70.63    3.72
  -5   8   8   66.68    2.72
   5   8  -8   61.25    3.35
  -5  -8   8   65.96    3.44
   5   8  -8   59.14    2.41
  -5   8   7   54.81    3.18
  -5   8   7   56.61    2.44
   5   8  -7   63.18    3.17
  -5  -8   7   60.77    3.19
   5   8  -7   58.65    2.36
   5   8  -6    3.84    1.07
  -5  -8   6    2.57    1.39
  -5   8   6    1.16    0.46
   5   8  -6    3.80    1.44
  -5   8   6    4.42    1.10
  -5   8   5   97.83    3.12
  -5   8   5   97.00    2.46
  -5  -8   5   96.70    3.45
   5   8  -5   97.87    3.11
  -5  -8   5   93.36    3.92
  -5   8   4  192.99    4.35
  -5   8   4  189.62    4.84
  -5  -8   4  205.52    5.92
  -5  -8   4  206.33    5.08
   5   8  -4  201.02    4.96
  -5  -8   3  136.00    4.60
   5   8  -3  138.02    3.93
   5   8  -2   20.06    1.56
  -5  -8   2   18.39    1.82
  -5  -8   2   19.09    1.59
  -5  -8   1    2.07    1.05
   5   8  -1    3.07    0.88
  -5  -8   1    0.22    0.84
   5   8  -1    2.66    0.97
  -5   8   0  108.05    3.71
   5   8   0  111.43    3.78
   5   8   0  109.11    3.00
  -5   8   0  105.59    3.40
  -5  -8   0  116.61    3.92
  -5   8  -1  257.76    6.55
  -5  -8  -1  265.29    6.79
  -5   8  -1  245.06    6.01
  -5   8  -2  277.69    7.13
   5   8   2  274.42    7.17
  -5  -8  -2  277.90    7.26
  -5  -8  -3    0.14    1.00
  -5   8  -3    0.13    1.16
   5   8   3    1.86    1.30
  -5   8  -4    2.35    1.51
   5   8   4    3.78    1.15
   5  -8   4    0.98    1.28
  -5  -8  -5   82.05    3.53
   5  -8   5   81.57    3.54
  -5   8  -5   79.50    3.94
   5   8   5   80.82    3.21
  -5  -8  -6  160.98    5.23
  -5  -8  -6  155.57    5.77
  -5   8  -6  166.13    5.31
   5  -8   6  155.58    5.19
   5   8   6  157.67    4.91
  -5   8  -6  155.84    5.82
  -5  -8  -7  248.57    7.73
   5   8   7  234.18    6.69
   5  -8   7  240.17    7.05
  -5   8  -7  242.96    7.04
  -5   8  -7  251.26    7.83
  -5  -8  -7  255.35    7.10
  -5  -8  -8   29.47    2.46
   5  -8   8   25.55    2.46
  -5   8  -8   30.82    2.57
  -5  -8  -8   27.04    2.76
  -5  -8  -9    0.17    1.57
   5  -8   9    5.05    1.90
  -5   8  -9    0.91    1.62
   5   9 -10   35.80    3.09
  -5   9  10   33.11    3.07
   5   9 -10   36.86    3.07
  -5  -9  10   43.01    3.26
  -5  -9  10   32.13    3.06
  -5   9   9    7.53    1.29
   5   9  -9    6.66    1.26
  -5  -9   9    7.66    1.86
   5   9  -9    6.73    1.98
   5   9  -9    8.97    2.11
  -5   9   9    3.79    1.97
   5   9  -8    9.22    1.90
   5   9  -8    9.34    1.31
  -5  -9   8   10.25    1.96
  -5   9   8    8.92    2.05
  -5   9   8   10.93    1.33
   5   9  -7    3.07    1.08
  -5  -9   7    2.94    1.53
   5   9  -7    3.88    1.59
  -5   9   7    2.18    0.98
  -5   9   6  188.80    4.09
  -5   9   6  191.21    4.75
  -5  -9   6  196.45    6.25
  -5  -9   6  200.30    5.66
   5   9  -6  187.23    4.92
  -5   9   5   23.89    1.58
  -5  -9   5   29.23    2.42
  -5   9   5   25.66    1.29
  -5  -9   5   27.41    1.98
   5   9  -5   20.87    1.65
   5   9  -4    5.19    1.19
  -5   9   4    6.43    0.99
  -5   9   4    6.17    1.13
  -5  -9   4    4.27    1.48
  -5  -9   4    4.74    1.18
  -5  -9   3    3.54    1.42
   5   9  -3    0.43    1.01
  -5  -9   2   99.35    3.53
  -5  -9   2   99.81    3.80
   5   9  -2   97.87    3.41
  -5  -9   1   32.93    2.13
  -5   9   1   28.53    1.83
  -5  -9   1   26.33    1.94
   5   9  -1   27.37    1.92
  -5   9   1   26.01    1.84
  -5   9   0   98.08    3.56
   5   9   0   99.87    3.66
  -5   9   0  104.71    3.48
  -5   9  -1  105.73    3.79
   5   9   1  100.31    3.86
  -5  -9  -1  112.82    4.12
  -5   9  -1  102.08    3.54
  -5  -9  -2    8.58    1.52
  -5   9  -2   11.54    1.67
   5   9   2    7.18    1.60
  -5  -9  -3   11.21    1.67
  -5   9  -3   10.39    1.61
   5   9   3    9.78    1.55
   5   9   4   69.27    2.85
  -5   9  -4   74.75    3.56
   5   9   5  199.38    5.52
  -5  -9  -5  194.65    5.78
   5  -9   5  197.15    5.90
  -5   9  -5  207.95    6.58
  -5  -9  -6   29.76    2.57
  -5   9  -6   27.91    2.59
   5  -9   6   23.24    2.17
  -5  -9  -6   28.13    2.23
   5   9   6   29.01    2.17
  -5  -9  -7    0.39    1.52
  -5   9  -7    1.21    1.70
   5  -9   7    0.79    1.51
  -5  -9  -7    2.74    1.34
  -5   9  -7    0.16    1.41
   5   9   7    2.69    1.36
  -5  -9  -8   11.04    2.16
  -5  -9  -8    9.02    1.67
  -5   9  -8   10.82    1.89
   5  -9   8    7.16    1.79
   5   9   8    6.91    1.65
   5  -9   9   61.66    3.78
  -5   9  -9   66.36    3.86
  -5 -10  10    5.01    2.03
  -5  10  10    1.43    1.91
   5  10 -10    3.64    1.99
  -5  10   9    8.22    1.25
  -5  10   9    7.62    2.12
   5  10  -9    8.78    2.02
   5  10  -9    9.63    1.40
  -5 -10   8    1.56    1.54
   5  10  -8    3.53    1.16
  -5  10   8    3.02    1.80
   5  10  -8    4.20    1.70
  -5  10   8    2.87    0.97
  -5 -10   7   18.89    2.03
   5  10  -7   18.61    1.62
   5  10  -7   21.03    2.21
  -5  10   7   20.26    1.43
  -5 -10   7   19.70    2.40
  -5 -10   6    0.12    1.37
   5  10  -6    2.09    1.16
  -5  10   6    2.57    0.79
  -5  10   6    2.19    0.94
  -5 -10   6    1.71    1.70
  -5  10   5    2.03    0.82
   5  10  -5    2.02    1.19
  -5  10   5   -0.13    0.86
  -5 -10   5    2.44    1.60
  -5 -10   5    0.31    1.22
  -5  10   4  111.14    3.27
  -5 -10   4  110.73    4.35
   5  10  -4  114.20    3.70
  -5  10   4  113.21    3.26
  -5 -10   3  266.08    7.06
   5  10  -3  262.15    6.44
  -5 -10   2   82.15    3.48
   5  10  -2   83.03    3.17
  -5  10   1    6.97    1.19
  -5 -10   1    8.32    1.52
  -5 -10   1    6.81    1.41
   5  10  -1    6.39    1.36
  -5  10   1    6.77    1.41
  -5  10   0   86.03    3.23
   5  10   0   87.53    3.43
  -5 -10   0   74.66    3.18
  -5  10   0   83.91    3.24
  -5 -10   0   80.10    3.48
  -5  10  -1  406.99    9.22
   5  10   1  408.96    9.44
  -5  10  -1  399.28    9.01
  -5 -10  -1  409.26    9.62
   5  10   2  460.50   10.48
  -5 -10  -2  462.45   10.71
  -5  10  -2  446.57   10.30
  -5  10  -3    1.65    1.21
  -5 -10  -3   -1.21    1.47
   5  10   3   -0.29    1.39
  -5  10  -4    0.92    1.34
  -5 -10  -5  146.60    4.78
   5  10   5  145.42    4.61
   5 -10   5  146.76    5.03
  -5 -10  -5  146.86    5.52
  -5  10  -5  143.33    5.47
  -5 -10  -6  110.40    4.17
  -5 -10  -6  120.51    5.05
   5 -10   6  110.36    4.45
  -5  10  -6  106.02    4.76
   5  10   6  117.00    4.22
  -5  10  -7   43.83    3.01
   5 -10   7   46.23    3.00
  -5 -10  -7   43.59    3.21
  -5  10  -7   43.92    3.27
   5  10   7   39.25    2.65
  -5 -10  -7   43.17    2.71
  -5 -10  -8    4.23    1.39
   5 -10   8    7.03    1.75
   5  10   8    2.77    1.58
  -5  10  -8    4.59    1.66
  -5 -11  10    3.15    1.91
   5  11 -10    5.71    2.10
   5  11  -9    0.18    1.76
  -5 -11   9    1.59    1.70
   5  11  -9    1.67    1.11
  -5  11   9   -1.15    1.93
  -5  11   8    0.70    0.81
  -5  11   8    0.35    1.76
  -5 -11   8    1.27    1.56
   5  11  -8    0.61    1.11
   5  11  -8    1.22    1.62
   5  11  -8    0.49    1.61
  -5 -11   8    0.74    1.67
  -5 -11   7    7.75    1.69
   5  11  -7    6.94    1.31
   5  11  -7   11.50    1.94
  -5  11   7   10.41    1.01
  -5 -11   7    9.82    1.98
  -5  11   7    9.36    1.03
  -5 -11   6   -0.37    1.40
   5  11  -6    0.80    1.14
  -5  11   6    0.73    0.79
  -5  11   6   -0.12    0.80
  -5 -11   6   -0.48    1.51
  -5  11   5  159.97    3.93
  -5 -11   5  157.82    4.88
  -5  11   5  156.61    4.09
  -5 -11   5  161.19    5.55
   5  11  -5  166.75    4.78
  -5 -11   4   21.44    2.19
  -5  11   4   20.11    1.38
   5  11  -4   23.16    1.82
  -5  11   4   21.93    1.54
   5  11  -3   -0.41    1.12
  -5 -11   3   -0.52    1.32
  -5  11   2   25.51    1.64
  -5 -11   2   20.47    1.96
   5  11  -2   22.79    1.87
  -5  11   1  230.72    5.79
  -5 -11   1  249.05    6.57
   5  11  -1  233.98    6.29
  -5  11   1  234.76    6.22
  -5 -11   1  233.02    6.38
  -5  11   0  234.41    5.93
  -5 -11   0  223.60    6.40
  -5 -11   0  217.31    6.05
   5  11   0  225.63    6.22
  -5  11   0  217.18    5.97
  -5  11  -1   12.28    1.70
  -5 -11  -1    8.48    1.71
  -5  11  -1   13.09    1.77
   5  11   1   12.22    1.80
  -5  11  -2   16.21    1.85
  -5 -11  -2   14.92    2.01
   5  11   2   16.01    1.94
   5  11   3   92.75    4.02
  -5  11  -3   95.62    3.98
  -5  11  -4  180.76    5.98
  -5 -11  -5   49.89    2.66
   5  11   5   45.93    2.63
  -5 -11  -5   53.10    3.39
  -5  11  -5   50.86    3.28
  -5  11  -6    1.72    1.68
  -5 -11  -6    4.87    1.75
  -5 -11  -6    4.08    1.40
   5  11   6    1.54    1.34
   5 -11   6    2.48    1.44
  -5 -11  -7   16.69    2.41
  -5 -11  -7   16.88    1.94
  -5  11  -7   19.48    2.26
   5  11   7   15.92    1.97
  -5  11  -7   20.74    2.49
   5 -11   7   18.82    2.26
   5 -11   8    4.45    1.76
   5  11   8    5.37    1.66
  -5  12   9    7.67    2.27
  -5 -12   9   11.81    2.17
   5  12  -9   10.29    1.55
   5  12  -9   11.44    2.15
   5  12  -9   13.07    2.26
  -5 -12   9   17.34    2.54
  -5 -12   8    9.47    1.90
   5  12  -8    8.77    1.53
   5  12  -8   10.02    2.00
   5  12  -8   10.92    2.07
  -5 -12   8   12.78    2.26
  -5 -12   7    5.56    1.68
   5  12  -7    4.49    1.32
  -5  12   7    4.42    0.99
  -5 -12   7    5.69    1.80
  -5  12   7    4.75    0.76
   5  12  -6    2.28    1.25
  -5 -12   6    3.77    1.75
  -5  12   6    2.55    0.77
  -5  12   6    4.24    1.05
  -5 -12   6    4.69    1.56
  -5  12   5   11.43    1.37
   5  12  -5   15.30    1.79
  -5  12   5   11.26    1.03
  -5 -12   5   14.56    2.06
  -5  12   4   78.80    2.49
  -5  12   4   72.84    2.43
  -5 -12   4   78.56    3.66
   5  12  -4   75.61    3.18
  -5  12   4   72.53    2.78
  -5  12   3   53.84    2.15
  -5  12   3   51.36    2.46
  -5 -12   3   48.61    2.88
   5  12  -3   45.16    2.54
  -5  12   2    0.92    0.88
  -5 -12   2    0.63    1.33
   5  12  -2    2.84    1.28
  -5  12   1    1.23    1.08
  -5 -12   1   -0.26    1.28
  -5 -12   1   -0.12    1.18
   5  12  -1    0.36    1.24
  -5  12   1    0.23    1.32
  -5 -12   0   27.47    2.40
  -5 -12   0   26.45    2.10
  -5  12   0   31.51    2.28
   5  12   0   23.65    2.07
  -5  12   0   26.67    2.00
  -5 -12  -1   53.01    3.02
   5  12   1   50.08    2.84
  -5 -12  -1   48.41    2.57
  -5  12  -1   47.89    2.73
  -5  12  -1   52.88    2.75
   5  12   2   72.21    3.52
  -5  12  -2   70.03    3.29
  -5 -12  -2   67.02    3.49
   5  12   3   47.11    2.99
  -5  12  -3   45.88    2.81
  -5  12  -4    0.32    1.48
  -5  12  -5    5.64    1.77
  -5 -12  -5    9.24    1.86
  -5 -12  -5    7.09    1.44
   5  12   5    7.82    1.52
  -5 -12  -6  100.87    3.92
   5  12   6  102.17    4.06
  -5 -12  -6  107.54    4.92
  -5  12  -6   94.32    4.61
   5 -12   7   72.72    3.82
  -5  12  -7   66.28    4.02
  -5 -12  -7   64.45    4.02
   5  12   7   78.53    3.65
  -5 -12  -7   81.90    3.52
   5 -12   8    7.08    1.91
   5  12   8    8.89    1.95
  -5 -13   9    5.59    1.91
   5  13  -9    6.22    1.53
  -5  13   9    6.29    2.18
   5  13  -9    5.55    2.08
  -5 -13   8    0.51    1.55
   5  13  -8   -0.12    1.29
   5  13  -8    1.22    1.69
   5  13  -8    0.37    1.58
  -5 -13   8    0.20    1.67
   5  13  -7    0.59    1.29
  -5  13   7    0.52    0.92
  -5 -13   7    1.28    1.67
  -5 -13   7    1.36    1.53
  -5  13   6   88.40    2.29
  -5  13   6   95.88    3.14
   5  13  -6   94.23    3.67
  -5  13   5   73.24    2.14
  -5  13   5   67.60    2.05
  -5  13   5   74.42    2.83
   5  13  -5   75.75    3.32
   5  13  -4    3.42    1.32
  -5  13   4    2.93    0.79
  -5  13   4   -0.18    1.02
  -5  13   4    1.27    0.72
  -5 -13   4   -0.15    1.30
   5  13  -3    4.89    1.39
  -5  13   3    6.25    0.99
  -5  13   3    5.03    1.27
  -5 -13   3    6.01    1.57
  -5 -13   2   49.66    2.84
   5  13  -2   44.71    2.68
  -5  13   1   20.24    1.57
  -5 -13   1   14.68    1.71
   5  13  -1   15.27    1.84
  -5  13   1   17.17    1.95
  -5 -13   0   96.14    3.73
   5  13   0   88.91    3.50
  -5 -13   0   91.81    3.36
  -5  13   0   90.50    3.49
  -5  13   0   92.79    3.13
  -5  13  -1   24.65    2.01
  -5  13  -1   21.69    2.14
  -5 -13  -1   23.02    2.33
  -5 -13  -1   22.61    1.94
   5  13   1   26.08    2.26
  -5  13  -2    0.13    1.24
  -5 -13  -2   -0.80    1.43
  -5 -13  -2   -1.00    1.22
   5  13   2    0.90    1.38
   5  13   3   36.14    2.69
  -5  13  -3   33.12    2.47
  -5  13  -4   58.50    3.36
  -5 -13  -5   71.89    3.12
   5  13   5   69.11    3.84
  -5  13  -5   73.17    3.85
  -5 -13  -5   76.45    4.05
  -5 -13  -6   26.21    2.14
  -5 -13  -6   26.34    2.79
   5  13   6   26.61    2.35
  -5  13  -6   24.98    2.79
   5  13   7    3.84    1.63
   5  13   8   27.42    2.56
  -5 -14   9    1.72    1.78
   5  14  -9    2.18    1.99
   5  14  -8   -1.68    1.37
  -5 -14   8   -1.01    1.66
  -5 -14   8   -0.70    1.56
   5  14  -7    0.51    1.31
  -5  14   7    2.00    0.99
  -5 -14   7    0.75    1.60
   5  14  -6    2.92    1.46
  -5 -14   6    1.91    1.72
  -5  14   6    0.78    1.05
  -5  14   5    7.04    1.40
  -5  14   5    3.88    0.54
   5  14  -5    8.01    1.61
  -5 -14   5    7.07    1.95
   5  14  -4   12.06    1.70
  -5  14   4    9.02    0.89
  -5  14   4   12.19    1.52
  -5  14   4    9.69    0.85
  -5 -14   4   11.90    1.90
   5  14  -3   17.77    1.92
  -5  14   3   17.57    1.78
  -5 -14   3   18.46    2.10
  -5  14   3   20.48    1.31
  -5  14   2   14.79    1.36
  -5 -14   2   12.30    1.85
   5  14  -2   12.89    1.81
  -5  14   1    0.14    1.44
  -5  14   1    0.35    1.04
   5  14  -1    2.37    1.31
  -5 -14   1    2.61    1.39
   5  14  -1    1.08    1.37
  -5 -14   0   25.94    2.11
  -5 -14   0   25.09    2.37
   5  14   0   26.75    2.08
  -5  14   0   27.13    2.40
   5  14   0   22.51    2.12
  -5  14   0   24.98    1.97
  -5 -14  -1   59.39    3.33
   5  14   1   57.01    3.19
  -5 -14  -1   50.32    2.70
   5  14   1   55.69    2.81
  -5  14  -1   57.62    3.15
  -5  14  -1   52.78    2.79
  -5 -14  -2   34.08    2.73
   5  14   2   34.46    2.67
  -5 -14  -2   35.03    2.28
  -5  14  -2   34.85    2.48
  -5  14  -3    4.32    1.61
   5  14   3    2.18    1.64
  -5  14  -4    4.64    1.67
  -5 -14  -5   19.24    1.83
  -5 -14  -5   19.43    2.45
   5  14   5   23.21    2.54
  -5  14  -5   20.77    2.43
   5  14   6   54.03    3.09
  -5  14  -6   52.78    3.51
  -5 -14  -6   47.03    3.45
   5  14   7    2.06    1.60
   5  15  -8   -1.53    1.36
  -5 -15   8   -2.16    1.80
  -5 -15   8   -1.86    1.85
   5  15  -7   13.28    1.81
  -5  15   7   15.01    1.51
  -5 -15   7   17.80    2.39
   5  15  -6    2.45    1.47
  -5 -15   6    1.61    1.70
  -5  15   6    0.58    1.07
  -5 -15   5  150.77    5.51
  -5  15   5  143.11    4.50
   5  15  -5  156.99    5.18
  -5  15   4   -0.22    0.45
   5  15  -4   -0.14    1.29
  -5  15   4   -0.11    1.17
  -5  15   4   -0.12    0.40
  -5 -15   4   -1.39    1.49
  -5  15   3    2.62    0.76
   5  15  -3    1.91    1.28
  -5  15   3    0.95    1.23
  -5 -15   3    0.86    1.37
  -5  15   2   15.64    1.32
  -5 -15   2   12.37    1.85
   5  15  -2    9.99    1.80
  -5 -15   1  127.52    4.51
   5  15  -1  128.37    4.73
  -5  15   1  124.94    4.79
   5  15  -1  131.90    4.54
  -5  15   1  128.01    3.93
  -5 -15   0  162.00    5.18
   5  15   0  177.73    5.78
   5  15   0  172.04    5.28
  -5  15   0  170.61    5.70
  -5  15   0  174.22    5.02
  -5  15  -1    0.12    1.19
  -5  15  -1    0.60    1.58
  -5 -15  -1   -0.17    1.38
  -5 -15  -1   -0.46    1.19
   5  15   1   -0.78    1.54
   5  15   1   -0.60    1.48
  -5  15  -2    5.43    1.49
  -5 -15  -2    6.05    1.62
  -5 -15  -2    6.52    1.40
   5  15   2    6.89    1.71
  -5 -15  -3   96.30    3.61
  -5  15  -3  101.62    4.27
  -5 -15  -4   59.36    2.76
  -5  15  -4   60.90    3.49
  -5 -15  -5    0.98    1.11
  -5 -15  -5    0.62    1.68
   5  15   5   -1.95    1.72
  -5  15  -5   -0.37    1.65
   5  15   6    7.25    1.81
  -5  15  -6   11.04    2.24
   5  15   7    7.23    1.92
   5  16  -8    4.30    1.49
   5  16  -7    0.88    1.43
  -5 -16   7    0.98    1.67
   5  16  -6    1.61    1.47
  -5 -16   6    3.66    1.84
  -5  16   6    3.15    1.28
  -5  16   5   11.68    1.65
   5  16  -5    9.32    1.87
  -5 -16   5   11.54    2.10
   5  16  -4    9.57    1.77
  -5  16   4    5.99    1.45
  -5 -16   4    7.86    1.78
   5  16  -3    4.95    1.59
  -5  16   3    1.79    1.30
  -5 -16   3    3.99    1.54
  -5  16   3    3.36    0.68
  -5  16   2    0.07    0.81
  -5  16   2   -1.51    1.57
  -5 -16   2   -1.78    1.53
   5  16  -2    0.74    1.46
  -5  16   1    1.57    1.04
  -5  16   1    0.32    1.50
   5  16  -1    0.40    1.46
  -5 -16   1    1.67    1.37
   5  16  -1    2.72    1.53
  -5  16   0    6.68    1.47
   5  16   0   11.99    1.84
  -5  16   0   10.37    2.06
  -5 -16   0    7.61    1.56
   5  16   0    8.49    1.86
   5  16   1    0.13    1.33
  -5  16  -1    1.70    1.26
  -5  16  -1   -1.28    1.64
  -5 -16  -1    2.48    1.61
  -5 -16  -1    0.23    1.18
   5  16   1    1.80    1.50
  -5 -16  -2    2.79    1.63
  -5 -16  -2    3.66    1.23
   5  16   2    4.81    1.69
  -5  16  -2    5.21    1.56
  -5 -16  -3   19.93    1.82
  -5  16  -3   19.12    2.19
  -5 -16  -4   -0.53    1.07
  -5 -16  -4   -1.39    1.24
  -5  16  -4   -0.86    1.44
  -5 -16  -5   -0.64    1.65
  -5  16  -5   -0.76    1.68
   5  16   6   32.63    2.73
   5  17  -8    1.42    1.47
   5  17  -7   -2.18    1.56
  -5 -17   7    0.40    1.71
  -5  17   6   61.58    2.93
  -5 -17   6   65.16    3.81
   5  17  -6   63.68    3.46
  -5 -17   5   42.47    3.12
  -5  17   5   45.23    2.66
   5  17  -5   45.88    3.02
   5  17  -4    1.08    1.50
  -5  17   4    0.39    1.29
  -5 -17   4    0.81    1.51
   5  17  -3   -2.01    1.51
  -5  17   3   -0.83    1.34
  -5 -17   3    0.15    1.42
  -5  17   3    0.44    0.46
  -5  17   2   26.55    2.38
  -5  17   2   30.83    1.59
  -5 -17   2   23.70    2.27
  -5  17   2   26.08    2.64
   5  17  -2   25.64    2.48
  -5  17   1   22.14    2.42
   5  17  -1   25.87    2.41
  -5 -17   1   22.95    2.16
  -5  17   1   30.64    1.83
   5  17  -1   22.86    2.38
  -5 -17   0   68.33    3.20
   5  17   0   65.96    3.64
   5  17   0   69.76    3.45
  -5  17   0   67.24    2.96
   5  17   1    5.29    1.62
  -5  17  -1    4.45    1.81
  -5 -17  -1    4.37    1.31
   5  17   1    6.02    1.77
  -5  17  -1    5.35    1.47
  -5 -17  -2   -1.16    1.71
  -5 -17  -2   -0.44    1.20
   5  17   2   -0.18    1.47
  -5  17  -2   -0.56    1.36
  -5 -17  -3   11.40    1.48
  -5  17  -3   12.91    1.99
  -5  17  -4   29.22    2.67
  -5  17  -5    9.63    2.12
   5  18  -7   -2.66    1.58
   5  18  -6    2.81    1.69
  -5 -18   6    2.87    1.83
  -5  18   5    3.80    1.51
   5  18  -5    4.11    1.76
  -5 -18   5    4.45    1.81
   5  18  -4   -0.16    1.49
  -5  18   4    0.83    1.31
  -5 -18   4   -0.99    1.54
   5  18  -3    1.47    1.46
  -5  18   3    2.94    1.48
  -5 -18   3    2.91    1.51
  -5  18   2    4.25    1.60
  -5 -18   2    4.00    1.52
  -5  18   2    4.20    1.80
   5  18  -2    3.31    1.62
  -5  18   1    0.18    1.79
   5  18  -1    2.26    1.64
  -5 -18   1    0.53    1.33
  -5  18   1    0.82    1.04
   5  18  -1   -0.51    1.52
   5  18   0    8.30    1.88
  -5  18   0    5.56    1.97
  -5 -18   0    5.05    1.46
   5  18   0    5.25    1.78
  -5  18   0    4.24    1.32
   5  18   1   11.64    1.93
  -5  18  -1   11.66    2.25
  -5 -18  -1   14.39    1.68
   5  18   1   14.61    2.20
  -5  18  -1   12.03    1.69
  -5 -18  -2    9.27    1.44
   5  18   2    8.28    1.96
  -5  18  -2    9.75    1.74
  -5  18  -3   -0.32    1.52
  -5  18  -4    0.18    1.46
  -5  18  -5    1.96    1.66
   5  19  -6    1.92    1.64
  -5 -19   6    1.18    1.72
  -5  19   5   43.32    2.82
   5  19  -5   36.87    3.00
  -5 -19   5   39.54    3.04
   5  19  -4    2.41    1.67
  -5  19   4    3.74    1.59
  -5 -19   4    1.86    1.62
   5  19  -3    1.56    1.53
  -5  19   3   -1.10    1.47
  -5 -19   3    0.94    1.46
  -5  19   2   -0.50    1.47
  -5 -19   2   -0.87    1.38
   5  19  -2   -1.92    1.65
  -5  19   2   -1.16    1.92
  -5  19   1   50.04    3.37
   5  19  -1   46.29    3.21
  -5 -19   1   52.70    2.94
  -5  19   1   49.23    3.51
   5  19  -1   46.59    3.08
   5  19   0   63.03    3.68
  -5 -19   0   51.57    2.83
   5  19   0   59.08    3.43
  -5  19   0   63.60    3.85
   5  19   1   -0.80    1.57
  -5  19  -1   -1.94    1.87
  -5 -19  -1    1.03    1.21
   5  19   1   -0.38    1.64
  -5  19  -1    0.12    1.24
  -5  19  -2    3.14    1.48
   5  19   2    3.23    1.66
  -5  19  -3   13.95    2.03
  -5  19  -4   57.60    3.58
  -5 -20   5   16.90    2.37
  -5  20   4    0.96    1.47
  -5 -20   4    0.69    1.53
   5  20  -3   -0.37    1.58
  -5  20   3   -0.17    1.50
  -5 -20   3   -0.80    1.43
  -5  20   3   -2.10    1.99
  -5  20   2    6.99    2.12
  -5  20   2    6.20    1.86
  -5 -20   2    3.82    1.50
   5  20  -2    6.07    1.86
  -5  20   1    4.26    2.12
   5  20  -1    2.73    1.81
  -5  20   1    1.13    1.68
  -5 -20   1    0.94    1.36
   5  20  -1    2.06    1.63
   5  20   0    4.38    1.90
  -5  20   0    3.87    2.06
   5  20   1    5.73    1.82
  -5  20  -1    3.08    1.98
   5  20   2    2.39    1.75
  -5 -21   5    1.70    1.68
  -5  21   4    0.34    1.54
  -5  21   3    1.78    1.60
  -5 -21   3    0.64    1.47
  -5  21   2    4.68    1.79
   5  21  -1    4.90    1.87
  -5  21   1    4.18    1.81
   5  21   0    3.95    1.91
   5  21   1    4.47    1.87
   5  21   2    1.99    1.67
   5  21   3   -0.18    1.79
  -5  22   3   -0.75    1.63
   5  22  -1    1.34    1.81
   5  22   0   -0.19    1.76
   5  22   1    4.90    1.95
  -6   0  11   15.27    2.25
  -6   0  10   14.16    2.05
  -6   0   9    1.55    1.43
  -6   0   8   47.15    2.93
  -6   0   7  147.78    5.05
  -6   0   6  459.52   10.45
  -6   0   5   -0.72    1.16
  -6   0   4    8.43    1.40
  -6   0   3  307.18    6.07
  -6   0   2  525.95   10.06
  -6   0   1  842.75   15.61
  -6   0   0   24.19    1.66
  -6   0  -1   68.22    2.89
  -6   0  -2  505.09   10.73
   6   0   2  481.09    8.70
  -6   0  -3  433.52   10.08
  -6   0  -3  433.52   10.00
   6   0   3  425.23    8.25
  -6   0  -4  177.49    5.71
  -6   0  -4  169.75    5.59
  -6   0  -5   93.31    4.28
  -6   0  -5  102.00    4.34
  -6   0  -6   84.17    4.11
  -6   0  -7  237.91    7.48
  -6   0  -8  292.12    8.72
  -6   0  -8  280.04    8.60
  -6   1  12    1.31    1.83
  -6  -1  11    8.16    2.08
  -6   1  11   10.42    2.03
  -6  -1  10    0.69    1.59
  -6   1  10    0.48    1.47
  -6  -1   9    2.07    1.44
  -6   1   9   -0.45    1.39
  -6   1   8    1.96    1.38
  -6  -1   8    0.45    1.48
  -6   1   7    8.46    1.85
  -6  -1   7    9.01    1.79
  -6   1   6    8.43    1.81
  -6  -1   6   10.35    2.09
  -6   1   5    5.46    1.28
  -6  -1   5    5.29    1.35
  -6   1   4    0.79    1.03
  -6  -1   4    1.07    1.08
  -6  -1   3    3.83    0.81
  -6   1   3    1.43    0.71
  -6   1   2    2.51    1.02
  -6  -1   2    2.07    1.07
  -6   1   1    3.95    1.27
  -6  -1   1    7.48    1.31
  -6   1   0    5.65    1.10
  -6  -1   0    4.58    1.06
  -6   1  -1   30.76    1.93
  -6  -1  -1   28.59    1.94
   6   1   2    6.67    0.67
  -6   1  -2    9.87    1.46
  -6  -1  -2    8.83    1.50
   6  -1   2    8.90    0.80
   6  -1   3    1.41    0.84
  -6  -1  -3   -0.13    1.22
  -6   1  -3    1.28    1.19
  -6   1  -4    6.88    1.65
  -6  -1  -4    5.56    1.49
  -6   1  -4    4.29    1.46
   6  -1   4    4.93    1.04
  -6  -1  -4    5.97    1.47
  -6   1  -5    3.21    1.67
  -6  -1  -5    2.99    1.66
  -6   1  -5    2.22    1.60
  -6  -1  -5    0.81    1.52
  -6   1  -6   15.41    2.20
  -6  -1  -6   14.69    2.19
  -6   1  -7    1.73    1.56
  -6  -1  -7    2.25    1.53
  -6   1  -8    2.71    1.72
  -6  -1  -8    1.21    1.54
  -6   1  -8    4.74    1.56
  -6  -1  -8    2.93    1.49
  -6   2  12   16.33    2.32
  -6  -2  11   36.29    3.05
  -6   2  11   32.04    2.71
  -6  -2  10   -1.24    1.65
  -6   2  10   -1.72    1.63
  -6  -2   9   11.51    1.93
  -6   2   9    9.13    1.68
  -6   2   8   23.82    2.18
  -6  -2   8   18.30    2.12
  -6   2   7  150.36    4.96
  -6  -2   7  142.98    5.10
  -6   2   6  196.33    5.67
  -6  -2   6  186.76    5.83
  -6   2   6  188.34    5.19
  -6   2   5   11.95    1.56
  -6  -2   5   13.04    1.66
  -6   2   5   15.50    1.38
  -6   2   4   21.30    1.75
  -6  -2   4   17.57    1.78
  -6   2   4   18.82    1.27
  -6   2   3  115.25    2.11
  -6   2   3  113.94    2.15
  -6  -2   3  118.87    2.42
  -6   2   2  570.40   10.70
  -6  -2   2  565.54   10.87
  -6   2   2  564.68    9.92
  -6   2   1  693.60   12.14
  -6  -2   1  719.21   12.34
  -6  -2   0  135.06    3.93
  -6   2   0  117.46    2.28
  -6  -2  -1   78.51    3.14
  -6   2  -1   74.31    1.84
  -6   2  -2  473.66    8.73
  -6  -2  -2  467.28   10.47
  -6   2  -3  710.84   13.07
  -6  -2  -3  695.37   14.78
   6  -2   3  726.86   13.13
  -6  -2  -4  232.23    6.68
  -6   2  -4  225.22    5.38
  -6  -2  -4  223.59    6.65
   6  -2   4  230.79    5.46
  -6   2  -5   18.42    2.27
  -6  -2  -5   19.64    2.11
  -6   2  -5   16.27    2.15
   6  -2   5   16.45    1.61
  -6  -2  -5   15.33    2.09
  -6  -2  -6   67.79    3.62
  -6   2  -6   67.67    3.69
  -6  -2  -7  182.38    6.43
  -6   2  -7  186.41    6.54
  -6  -2  -7  178.44    6.27
  -6   2  -8  127.45    5.42
  -6  -2  -8  132.35    5.55
  -6   2  -8  127.42    5.43
  -6  -2  -8  127.44    5.33
  -6   3  12    2.27    1.71
  -6   3  11    5.84    1.75
  -6  -3  10    0.91    1.61
  -6   3  10    1.66    1.51
  -6  -3   9    0.34    1.36
  -6   3   9    1.68    1.33
  -6   3   8    0.13    1.47
  -6   3   8   -0.26    1.34
  -6  -3   8    0.48    1.44
  -6   3   7    3.51    1.56
  -6   3   7    8.87    1.71
  -6  -3   7    8.38    1.94
  -6   3   6   11.79    1.74
  -6  -3   6   14.44    2.12
  -6   3   5   17.34    1.68
  -6  -3   5   17.08    1.92
  -6   3   5   18.60    1.50
  -6   3   4   20.80    1.32
  -6   3   4   19.87    1.69
  -6  -3   3    9.00    0.76
  -6  -3   3    8.50    1.01
  -6   3   3    8.40    0.88
  -6   3   3   10.00    0.96
  -6  -3   2   12.36    1.35
  -6   3   2   10.83    1.21
  -6   3   1    1.71    0.58
  -6  -3   1    2.27    1.25
  -6  -3   0   74.31    2.92
  -6  -3  -1  233.74    6.14
  -6  -3  -2   46.70    2.59
  -6   3  -2   51.07    1.81
   6  -3   3    0.88    0.86
  -6   3  -3    1.31    0.87
  -6  -3  -3    0.81    1.34
  -6   3  -4   48.88    2.19
  -6  -3  -4   49.15    2.81
  -6  -3  -4   46.42    2.81
   6  -3   4   49.13    2.21
  -6  -3  -5   71.21    3.56
  -6   3  -5   69.44    2.82
   6  -3   5   74.99    2.99
  -6   3  -6    3.11    1.62
  -6  -3  -6    4.33    1.68
  -6   3  -6    3.88    1.29
   6  -3   6    5.96    1.37
  -6   3  -7    4.19    1.72
  -6  -3  -7    5.44    1.73
   6  -3   7    3.70    1.44
  -6  -3  -7    8.43    1.81
  -6   3  -8    0.87    1.53
  -6  -3  -8    0.39    1.51
  -6   3  -8    4.32    1.52
   6  -3   8    3.45    1.42
  -6  -3  -8    4.24    1.64
   6  -3   9    1.68    1.61
  -6  -4  11   14.34    2.33
  -6   4  11   11.39    1.94
  -6  -4  10    9.18    2.04
  -6   4  10   11.31    1.81
  -6   4   9    2.76    1.61
  -6  -4   9    4.37    1.65
  -6   4   9    4.85    1.52
  -6   4   8   46.61    2.78
  -6  -4   8   47.97    3.11
  -6   4   8   46.44    2.88
  -6   4   7   98.76    3.78
  -6  -4   7  100.83    4.25
  -6   4   7   96.25    3.77
   6   4  -6  284.60    5.56
  -6   4   6  299.54    7.29
  -6  -4   6  286.33    7.75
  -6   4   6  286.68    7.00
   6   4  -5    1.76    0.68
  -6   4   5    2.23    1.08
  -6  -4   5    1.35    0.91
  -6   4   5    0.25    1.00
  -6   4   4   42.18    1.94
   6   4  -4   43.68    1.73
  -6   4   4   39.79    2.29
  -6  -4   4   40.81    1.73
  -6  -4   3  412.34    8.26
   6   4  -3  423.26    8.28
  -6  -4   3  400.67    7.54
  -6  -4   2  504.97   10.12
  -6  -4   1  527.84   10.77
  -6   4   1  530.17    9.62
  -6  -4   0    3.89    1.14
  -6  -4  -1   43.20    2.47
  -6   4  -2  201.16    5.93
  -6  -4  -2  195.14    5.73
  -6   4  -3  424.89   10.38
  -6  -4  -3  443.34   10.32
   6  -4   3  435.01    8.84
  -6   4  -3  448.73    8.88
  -6  -4  -4  259.18    7.18
  -6  -4  -4  249.04    7.27
   6  -4   4  264.45    6.19
  -6   4  -4  264.20    6.15
  -6   4  -5   79.74    3.14
  -6  -4  -5   86.51    3.85
   6  -4   5   82.67    3.21
  -6  -4  -6   34.07    2.61
  -6   4  -6   38.96    2.38
   6  -4   6   44.05    2.53
  -6   4  -6   39.46    3.05
  -6   4  -7   90.96    3.72
  -6  -4  -7   82.39    4.29
   6  -4   7   89.68    3.77
  -6   4  -7   95.39    4.56
  -6  -4  -7  101.92    4.47
  -6   4  -8  288.39    8.71
  -6  -4  -8  293.72    8.85
   6  -4   8  286.74    7.88
  -6  -4  -8  285.97    8.48
   6  -4   9  102.65    4.53
  -6   5  11    4.04    1.62
  -6   5  10    3.35    1.88
  -6  -5  10    0.19    1.68
  -6   5  10   -0.84    1.48
   6   5  -9   11.67    0.67
  -6   5   9   15.27    2.13
  -6  -5   9   14.75    2.21
  -6   5   9   12.06    1.72
   6   5  -8   17.94    1.95
   6   5  -8   13.74    0.85
  -6   5   8   16.75    1.89
  -6  -5   8   17.61    2.35
  -6   5   8   15.74    2.12
  -6   5   7    9.84    1.84
   6   5  -7   11.99    1.80
  -6   5   7    9.01    1.65
  -6  -5   7   11.25    2.12
   6   5  -7    9.29    0.85
  -6   5   6    5.87    1.51
  -6  -5   6    7.47    1.85
   6   5  -6    3.51    0.87
  -6   5   6    2.20    1.53
  -6   5   5   43.38    2.29
   6   5  -5   46.65    1.81
  -6   5   5   50.51    2.54
  -6  -5   5   43.39    2.13
  -6   5   4   18.78    0.84
   6   5  -4   23.78    1.39
  -6   5   4   22.60    1.78
  -6  -5   4   22.70    1.36
  -6  -5   3    1.55    0.93
   6   5  -3    2.07    0.76
   6   5  -3    2.43    0.99
  -6  -5   2    5.85    1.22
   6   5  -2    3.42    0.55
   6   5  -2    4.17    1.11
  -6  -5   1   17.77    1.63
   6   5  -1   17.88    1.65
  -6   5   1   19.45    1.23
  -6  -5   0   25.14    1.89
   6   5   1    5.94    0.48
  -6  -5  -1    6.01    1.32
  -6   5  -2   -0.27    1.05
  -6  -5  -2    0.13    1.20
  -6   5  -3    5.37    1.68
  -6  -5  -3    7.27    1.54
   6  -5   4    7.58    1.27
  -6   5  -4    8.36    1.85
  -6  -5  -4    7.17    1.57
  -6   5  -4    6.99    1.26
  -6  -5  -4    6.78    1.73
   6  -5   5    7.43    1.36
  -6   5  -5    9.53    1.40
  -6  -5  -5    7.23    1.67
  -6   5  -6   55.08    2.82
  -6  -5  -6   63.88    3.39
   6  -5   6   58.08    2.91
  -6   5  -7    5.13    1.84
  -6  -5  -7    1.23    1.35
   6  -5   7    4.76    1.47
  -6   5  -7    3.81    1.34
  -6  -5  -7    6.41    1.68
  -6  -5  -8    0.19    1.57
  -6   5  -8    0.73    1.37
   6  -5   8    3.30    1.51
   6  -5   9   10.11    2.00
  -6   6  10   -1.80    1.90
  -6  -6  10    0.59    1.57
  -6   6  10   -1.73    1.40
   6   6  -9    4.39    0.70
   6   6  -9    3.00    1.54
  -6  -6   9    3.89    1.81
  -6   6   9    5.32    1.39
  -6   6   9    2.90    1.72
   6   6  -8    6.99    1.71
  -6   6   8    3.99    1.67
  -6   6   8    4.25    1.36
  -6  -6   8    4.65    1.71
   6   6  -8    4.57    0.79
  -6   6   7   62.19    3.23
   6   6  -7   58.21    2.96
  -6   6   7   57.92    2.83
  -6  -6   7   62.14    3.55
   6   6  -7   60.61    2.05
  -6   6   6   87.74    3.32
  -6   6   6   87.92    3.12
   6   6  -6   89.44    2.33
  -6  -6   6   83.55    3.02
  -6   6   5   49.16    2.45
   6   6  -5   50.93    2.01
  -6  -6   5   49.46    2.28
  -6  -6   4    2.31    0.85
  -6   6   4    1.07    1.08
   6   6  -4    1.42    0.85
  -6  -6   3   35.69    1.89
   6   6  -3   35.20    1.88
  -6  -6   3   31.23    2.33
   6   6  -3   36.17    1.55
   6   6  -2  362.77    7.80
  -6  -6   2  342.15    8.54
  -6  -6   2  349.88    7.81
   6   6  -1  406.62    8.89
  -6   6   1  410.41    8.14
  -6  -6   1  408.05    9.03
   6   6   0  228.23    6.09
  -6  -6   0  236.05    6.20
  -6   6   0  241.16    5.31
  -6   6  -1   34.39    2.41
   6   6   1   31.74    1.20
  -6  -6  -1   33.59    2.27
   6   6   1   32.05    1.16
  -6   6  -2  126.83    4.50
  -6  -6  -2  117.52    4.32
   6   6   2  119.09    2.94
  -6   6  -3  733.92   15.44
  -6  -6  -3  713.85   15.33
   6   6   3  736.51   13.38
  -6   6  -4  362.47    9.49
  -6  -6  -4  369.30    9.11
  -6  -6  -4  369.03    9.48
  -6   6  -4  381.87    8.27
   6  -6   4  359.24    8.20
   6  -6   5    0.99    1.14
  -6   6  -5    1.94    1.71
  -6  -6  -5    1.64    1.45
  -6   6  -5    3.30    1.30
  -6  -6  -6   67.06    3.53
   6  -6   6   70.12    3.25
  -6   6  -6   72.44    3.21
  -6   6  -7   89.72    3.76
  -6  -6  -7   95.61    4.58
   6  -6   7   99.46    3.99
  -6  -6  -7   84.85    4.06
  -6   6  -8  147.78    5.27
   6  -6   8  154.65    5.41
  -6  -6  -8  157.13    5.81
  -6   6  -9   58.60    3.43
   6  -6   9   61.99    3.69
  -6   7  10    2.04    1.89
  -6  -7  10    1.42    1.60
   6   7 -10    2.05    1.66
  -6   7  10    2.38    1.29
   6   7  -9   -0.88    0.79
  -6   7   9   -0.65    1.70
   6   7  -9   -1.53    1.65
  -6  -7   9    0.57    1.50
  -6   7   9   -0.82    1.27
   6   7  -8    4.97    0.93
   6   7  -8    5.57    1.62
  -6  -7   8    5.87    1.74
  -6   7   8    5.96    1.75
  -6  -7   8    6.55    1.91
  -6   7   7   -0.79    1.48
  -6  -7   7    1.41    1.50
   6   7  -7   -0.36    1.49
  -6   7   7    0.21    1.15
   6   7  -7    0.97    0.89
  -6   7   6    1.50    1.54
   6   7  -6    0.10    0.39
  -6  -7   6    2.49    1.38
   6   7  -6    3.39    1.03
  -6  -7   5   11.55    1.37
  -6   7   5    8.27    0.49
  -6   7   5   12.07    1.46
   6   7  -5   12.30    1.22
  -6   7   4   62.03    1.89
  -6   7   4   62.50    2.69
   6   7  -4   61.09    2.42
  -6  -7   4   65.42    3.23
  -6  -7   4   59.56    2.28
   6   7  -3   33.99    1.90
  -6  -7   3   31.92    2.45
  -6  -7   2   45.15    2.36
   6   7  -2   43.15    2.29
  -6  -7   2   46.79    2.76
  -6   7   1    7.12    1.21
  -6  -7   1    7.19    1.48
   6   7  -1    6.23    1.41
   6   7   0  172.20    5.06
  -6  -7   0  169.95    5.13
  -6   7   0  166.83    4.33
   6   7   0  169.41    3.64
  -6   7  -1  397.05    9.31
   6   7   1  398.27    9.16
   6   7   1  383.25    7.35
  -6  -7  -1  386.49    9.15
  -6  -7  -2    6.75    1.47
  -6   7  -2    6.02    1.41
   6   7   2    6.20    0.82
   6   7   3    2.28    0.93
  -6   7  -3    3.69    1.51
  -6  -7  -3    2.06    1.38
  -6   7  -4  130.11    5.13
  -6  -7  -4  134.64    5.09
   6   7   4  145.36    4.01
  -6  -7  -5  143.44    5.04
   6   7   5  133.59    4.17
   6  -7   5  148.24    4.65
  -6   7  -5  143.70    4.56
  -6   7  -5  140.92    5.43
  -6  -7  -6   35.05    2.65
   6  -7   6   43.12    2.60
  -6   7  -6   39.84    2.49
  -6   7  -6   38.69    3.05
   6  -7   7    2.06    1.34
  -6  -7  -7    1.71    1.33
  -6   7  -7    1.56    1.22
  -6  -7  -7    1.86    1.35
  -6  -7  -8    4.78    1.79
   6  -7   8    5.89    1.88
  -6   7  -8    3.29    1.57
   6  -7   9   21.99    2.51
  -6   7  -9   19.47    2.48
   6   8 -10    3.84    1.82
  -6  -8  10    5.86    1.92
  -6  -8  10    5.86    1.95
  -6   8  10    1.89    1.76
   6   8  -9    5.98    1.78
  -6   8   9    4.47    1.85
  -6  -8   9    5.23    1.78
  -6  -8   9    3.93    1.79
  -6   8   9    1.65    1.18
   6   8  -8   40.31    2.78
  -6   8   8   40.26    2.91
  -6   8   8   40.80    2.32
   6   8  -8   41.76    1.91
  -6  -8   8   38.51    2.69
  -6   8   7   56.19    3.17
  -6   8   7   54.51    2.60
   6   8  -7   53.24    2.24
  -6  -8   7   61.77    3.07
   6   8  -7   60.79    3.10
  -6   8   6  139.67    4.21
   6   8  -6  140.64    3.83
  -6  -8   6  133.42    4.32
  -6   8   5    0.93    0.49
  -6  -8   5    0.77    1.09
  -6   8   5    0.28    1.02
  -6  -8   5    1.65    1.38
   6   8  -5    0.54    0.91
  -6   8   4   18.96    1.16
   6   8  -4   22.00    1.62
  -6  -8   4   18.08    2.06
   6   8  -3  150.80    4.29
  -6  -8   3  141.76    4.98
  -6  -8   2  141.47    4.38
   6   8  -2  130.18    4.14
  -6  -8   2  140.08    4.81
   6   8  -1  112.35    3.85
  -6   8   1  105.70    3.39
  -6  -8   1  106.70    3.89
  -6  -8   0   16.73    1.83
  -6   8   0   14.72    1.74
   6   8   0   13.27    1.10
  -6   8   0   18.45    1.57
   6   8   0   13.53    1.76
  -6  -8  -1   17.49    1.91
  -6   8  -1   16.47    1.93
   6   8   1   20.49    2.01
   6   8   1   21.20    1.26
  -6  -8  -2    8.31    1.45
  -6   8  -2   11.34    1.61
   6   8   2    8.42    0.96
   6   8   3  207.76    4.92
  -6   8  -3  207.09    6.38
  -6  -8  -3  191.99    6.24
  -6  -8  -4  192.53    6.26
   6   8   4  181.81    4.81
  -6   8  -4  185.32    6.21
  -6   8  -5   18.57    2.31
  -6  -8  -5   21.10    2.10
  -6   8  -5   23.25    1.99
   6   8   5   23.32    1.84
   6  -8   5   20.97    1.99
   6  -8   6   18.75    1.94
  -6   8  -6   21.36    2.57
  -6  -8  -6   19.46    2.16
   6   8   6   19.84    1.84
  -6   8  -6   21.88    2.03
  -6   8  -7   16.06    2.37
   6  -8   7   23.72    2.26
  -6  -8  -7   24.84    2.29
  -6   8  -7   20.15    2.06
  -6  -8  -7   19.07    2.31
  -6   8  -8  212.24    6.66
   6  -8   8  213.35    6.75
  -6  -8  -8  226.13    7.08
  -6   9  10    3.67    1.98
  -6  -9  10    3.42    1.77
   6   9 -10    1.97    1.81
  -6  -9   9   13.70    2.05
  -6   9   9   12.63    2.24
  -6   9   9   12.73    1.56
   6   9  -9   11.66    2.09
   6   9  -8    9.52    1.24
  -6  -9   8   10.62    1.91
  -6   9   8   12.30    2.07
   6   9  -8   11.72    1.97
  -6   9   8    9.52    1.39
   6   9  -7    3.92    1.54
   6   9  -7    0.24    0.99
  -6  -9   7   -0.12    1.41
  -6   9   7    1.00    1.53
  -6   9   7    2.48    1.23
  -6   9   6   24.06    1.78
   6   9  -6   28.64    1.81
  -6  -9   6   25.44    2.09
   6   9  -6   27.76    2.21
  -6  -9   6   25.30    2.61
  -6   9   5   53.99    2.43
  -6  -9   5   53.29    3.19
   6   9  -5   51.09    2.31
  -6  -9   5   44.90    2.33
  -6   9   5   47.89    1.68
  -6   9   4   44.88    1.82
  -6   9   4   43.79    2.22
  -6  -9   4   42.00    2.87
   6   9  -4   39.25    2.15
  -6  -9   3   -0.70    1.35
   6   9  -3   -0.85    1.00
  -6  -9   2    7.33    1.46
  -6  -9   2    6.47    1.66
   6   9  -2    5.50    1.35
  -6  -9   1   72.41    3.23
   6   9  -1   66.28    3.05
  -6  -9   1   69.66    3.43
  -6   9   1   71.64    2.87
  -6   9   0   91.13    3.69
   6   9   0   87.76    3.65
  -6   9   0   92.32    3.28
  -6  -9   0   93.35    3.77
  -6  -9  -1   26.02    2.28
  -6   9  -1   23.63    2.09
   6   9   1   22.73    2.06
  -6  -9  -2    0.89    1.25
  -6   9  -2    3.21    1.25
   6   9   2   -0.14    1.40
  -6  -9  -3    4.28    1.71
  -6   9  -3    3.39    1.53
   6   9   3    1.91    1.06
  -6  -9  -4   14.55    2.11
  -6   9  -4   10.83    2.07
   6   9   4   11.85    1.46
   6   9   5   20.93    1.77
  -6   9  -5   21.32    2.44
  -6  -9  -5   25.55    2.24
  -6  -9  -6   74.10    3.62
   6  -9   6   78.43    3.60
  -6   9  -6   79.98    3.60
   6   9   6   81.58    3.36
  -6   9  -6   85.72    4.34
  -6  -9  -7    4.50    1.87
   6  -9   7    8.01    1.72
  -6   9  -7    5.46    1.63
  -6  -9  -7    6.27    1.62
   6  -9   8    1.73    1.71
  -6  -9  -8   -1.06    1.61
  -6   9  -8    2.68    1.69
   6  10 -10    4.78    1.97
  -6 -10  10    2.04    1.75
  -6 -10   9    3.28    1.68
   6  10  -9    5.01    1.77
  -6  10   9    1.65    1.76
   6  10  -8    4.83    1.23
   6  10  -8    7.72    1.80
  -6 -10   8    5.36    1.70
  -6  10   8    6.03    1.20
  -6  10   8    4.80    1.72
  -6  10   7   29.49    1.85
  -6 -10   7   33.43    2.92
  -6 -10   7   32.16    2.38
   6  10  -7   30.20    1.92
   6  10  -7   31.55    2.47
  -6 -10   6   12.99    1.66
   6  10  -6   13.87    1.53
  -6  10   6   14.93    0.92
   6  10  -6   17.64    2.03
  -6  10   6   17.71    1.52
  -6 -10   6   14.21    2.20
  -6  10   5    5.88    0.90
  -6  10   5    2.78    1.07
  -6 -10   5    3.51    1.56
   6  10  -5    3.14    1.14
  -6  10   4    2.58    0.93
  -6  10   4    1.46    1.03
  -6 -10   4    4.67    1.65
   6  10  -4    2.22    1.17
  -6 -10   3   15.39    1.93
   6  10  -3   17.62    1.65
  -6 -10   2  160.47    5.03
   6  10  -2  168.96    4.96
  -6 -10   2  159.16    5.38
  -6 -10   1  170.86    5.29
  -6  10   1  164.85    4.97
   6  10  -1  166.31    5.13
  -6 -10   1  161.72    5.38
  -6  10   1  161.72    4.78
  -6  10   0   75.08    3.36
   6  10   0   83.20    3.57
  -6  10   0   80.76    3.21
  -6 -10   0   74.77    3.55
  -6  10  -1   28.76    2.27
   6  10   1   29.24    2.36
  -6 -10  -1   32.63    2.52
  -6  10  -2   33.21    2.43
  -6 -10  -2   30.31    2.51
   6  10   2   26.88    2.34
   6  10   3  292.24    6.62
  -6 -10  -3  285.07    8.10
  -6  10  -3  286.31    7.99
   6  10   4  158.57    4.53
  -6 -10  -4  158.92    5.82
  -6  10  -4  152.83    5.66
  -6  10  -5   -0.75    1.69
  -6 -10  -5    2.15    1.44
   6  10   5    1.05    1.21
  -6  10  -6   21.46    2.61
  -6 -10  -6   22.74    2.52
  -6 -10  -6   19.23    2.17
  -6  10  -6   20.30    2.20
   6  10   6   24.21    2.02
  -6 -10  -7   21.23    2.26
   6  10   7   27.20    2.17
  -6  10  -7   29.02    2.47
   6 -10   7   25.09    2.46
   6 -10   8   50.25    3.41
  -6  10  -8   47.61    3.23
  -6 -11  10    6.50    2.00
   6  11 -10    5.68    2.00
  -6 -11   9    1.00    1.62
  -6  11   9    3.02    2.00
   6  11  -9    1.03    1.64
  -6 -11   8    6.28    1.71
   6  11  -8    8.35    1.43
  -6  11   8    5.32    1.91
  -6 -11   8    6.13    1.92
  -6  11   8    6.32    1.15
   6  11  -8    7.68    1.80
  -6 -11   7    0.53    1.35
   6  11  -7    0.39    1.13
   6  11  -7    2.79    1.50
  -6  11   7   -0.69    0.95
  -6 -11   7    2.59    1.87
   6  11  -6    5.43    1.29
  -6  11   6    5.30    1.11
  -6 -11   6    1.57    1.77
  -6  11   6    4.09    0.81
  -6 -11   6    6.05    1.50
   6  11  -5    4.54    1.25
  -6  11   5    4.23    0.98
  -6  11   5    4.28    1.09
  -6 -11   5    4.91    1.78
  -6  11   4   47.69    2.12
  -6  11   4   41.48    2.13
  -6 -11   4   39.64    2.82
   6  11  -4   48.32    2.48
  -6 -11   3   22.18    2.19
   6  11  -3   18.55    1.77
  -6  11   2    8.00    1.43
  -6 -11   2   11.61    1.86
   6  11  -2   11.29    1.63
  -6  11   1   21.60    2.00
  -6  11   1   20.31    1.87
  -6 -11   1   16.58    2.05
  -6 -11   1   20.39    2.15
   6  11  -1   23.06    2.07
  -6 -11   0  110.44    4.38
  -6  11   0  100.08    3.86
   6  11   0   95.66    3.98
  -6 -11   0  104.40    4.18
  -6  11   0  107.19    3.85
  -6  11  -1  249.03    6.94
   6  11   1  250.91    7.09
  -6 -11  -1  263.23    7.34
  -6  11  -2   -0.43    1.34
  -6 -11  -2    0.64    1.32
   6  11   2    0.15    1.40
  -6  11  -3    2.07    1.62
  -6 -11  -3    1.04    1.55
   6  11   3    4.05    1.57
   6  11   4   74.97    3.02
  -6 -11  -4   67.07    3.80
  -6  11  -4   71.91    3.81
   6  11   5  158.01    4.84
  -6 -11  -5  155.70    5.28
  -6  11  -5  170.94    6.14
  -6  11  -6   34.44    3.07
  -6 -11  -6   35.54    2.98
  -6 -11  -6   27.49    2.35
   6  11   6   30.38    2.19
  -6 -11  -7    0.32    1.56
  -6  11  -7    0.67    1.55
   6 -11   8    2.40    1.73
  -6 -12   9    0.69    1.59
   6  12  -9    2.11    1.76
  -6  12   9   -0.19    1.77
  -6 -12   8   13.88    2.00
   6  12  -8   12.66    1.62
  -6  12   8   13.54    2.33
   6  12  -8   13.68    2.11
  -6 -12   8   18.15    2.57
   6  12  -7   16.02    1.69
  -6  12   7   15.40    1.04
   6  12  -7   18.29    2.15
  -6 -12   7   17.64    2.46
  -6  12   7   16.37    1.36
  -6 -12   7   14.82    1.97
  -6  12   6   53.91    2.16
  -6  12   6   45.32    1.89
  -6 -12   6   48.29    3.23
   6  12  -6   45.68    2.54
   6  12  -5   13.22    1.60
  -6  12   5   10.33    1.19
  -6  12   5    9.82    1.24
  -6 -12   5   10.22    2.05
  -6  12   4   19.81    1.56
  -6  12   4   17.25    1.50
  -6 -12   4   19.65    2.20
   6  12  -4   20.51    1.87
  -6  12   3   47.07    2.30
  -6 -12   3   47.07    2.96
   6  12  -3   41.93    2.51
  -6  12   2   54.10    2.59
  -6 -12   2   52.66    3.04
   6  12  -2   52.26    2.80
  -6  12   1   53.09    2.74
  -6 -12   1   58.71    3.18
   6  12  -1   58.80    3.06
  -6 -12   1   61.31    3.27
  -6  12   1   61.12    3.01
  -6  12   0   17.65    1.91
  -6  12   0   18.64    1.95
  -6 -12   0   19.58    2.14
  -6 -12   0   14.78    1.94
   6  12   0   18.25    2.01
  -6  12  -1    6.26    1.65
  -6 -12  -1    6.62    1.69
  -6 -12  -1    4.53    1.45
  -6  12  -1    6.16    1.65
   6  12   1    6.34    1.54
  -6  12  -2   12.81    1.85
  -6 -12  -2   12.27    1.92
   6  12   2   10.50    1.85
   6  12   3   42.00    2.95
  -6 -12  -3   41.79    3.04
  -6  12  -3   43.30    2.97
  -6  12  -4   23.73    2.43
   6  12   4   20.38    1.80
  -6 -12  -4   19.41    2.46
  -6  12  -5   26.55    2.78
   6  12   5   24.54    2.05
  -6 -12  -5   27.07    2.26
  -6  12  -6    5.53    1.96
  -6 -12  -6    1.31    1.73
  -6 -12  -6    2.47    1.40
   6  12   6    4.49    1.48
  -6  12  -7    9.55    2.07
  -6 -13   9    7.93    1.97
   6  13  -9    6.88    1.95
   6  13  -8    7.87    1.52
   6  13  -8   10.55    2.08
  -6 -13   8    8.57    1.82
   6  13  -7    4.40    1.44
   6  13  -7    7.75    1.86
  -6 -13   7    9.15    2.20
   6  13  -6    6.03    1.46
  -6  13   6    4.64    0.95
  -6 -13   6    3.48    1.87
  -6  13   6    5.02    1.05
   6  13  -5   16.41    1.81
  -6  13   5   15.73    1.47
  -6  13   5   18.17    1.35
  -6 -13   5   14.12    2.17
  -6  13   4   27.93    1.85
  -6  13   4   27.17    1.66
  -6  13   4   26.96    1.67
  -6 -13   4   27.70    2.56
   6  13  -4   23.61    2.04
  -6  13   3    9.54    1.29
  -6 -13   3   11.65    1.94
   6  13  -3    9.47    1.52
  -6  13   2    0.39    1.02
  -6 -13   2   -0.44    1.45
   6  13  -2   -0.52    1.23
  -6  13   1   25.05    2.03
  -6 -13   1   28.22    2.43
  -6  13   1   29.77    2.36
   6  13  -1   24.99    2.27
  -6  13   0   24.91    2.12
  -6  13   0   27.82    2.33
  -6 -13   0   22.14    2.33
  -6 -13   0   25.43    2.26
   6  13   0   24.77    2.26
  -6  13  -1   14.61    1.90
  -6 -13  -1   11.95    1.88
  -6 -13  -1   12.71    1.77
  -6  13  -1   13.47    1.93
   6  13   1   15.58    2.08
  -6  13  -2   11.21    1.83
  -6 -13  -2   11.36    1.94
   6  13   2    9.81    1.84
  -6  13  -3    1.31    1.57
  -6 -13  -3   -0.56    1.54
   6  13   3    1.04    1.47
  -6  13  -4    8.35    1.99
   6  13   4    6.11    1.87
  -6 -13  -5   93.74    3.92
   6  13   5   91.44    3.70
  -6  13  -5  101.64    4.78
  -6  13  -7    7.82    2.04
   6  14  -9    2.83    1.94
  -6 -14   9    3.62    1.70
   6  14  -8    2.75    1.39
  -6 -14   8    2.30    1.55
   6  14  -7   14.92    1.89
  -6 -14   7   16.97    2.47
   6  14  -6    6.26    1.53
  -6 -14   6    5.23    1.90
  -6  14   6    3.83    1.08
   6  14  -5   -0.38    1.29
  -6  14   5    0.90    0.97
  -6  14   5   -0.48    0.79
  -6  14   5    0.06    0.71
  -6  14   4    2.64    0.96
  -6  14   4    1.52    1.10
  -6  14   4    1.46    0.90
  -6 -14   4   -0.50    1.49
   6  14  -4    0.90    1.25
  -6  14   3    2.08    1.00
  -6  14   3    1.13    1.19
  -6 -14   3   -0.47    1.55
   6  14  -3    0.27    1.31
  -6  14   2   20.92    1.71
  -6 -14   2   22.80    2.22
   6  14  -2   17.87    1.99
  -6  14   2   21.82    2.18
  -6  14   1   24.59    2.25
  -6  14   1   25.47    1.95
  -6 -14   1   27.17    2.40
   6  14  -1   22.35    2.23
  -6  14   0    2.69    1.26
   6  14   0   -0.20    0.80
  -6  14   0    3.33    1.68
  -6 -14   0    1.49    1.48
  -6 -14   0    2.52    1.40
   6  14   0    1.82    1.42
   6  14   1   19.61    1.75
  -6  14  -1   24.75    2.19
  -6 -14  -1   28.47    2.63
  -6  14  -1   25.25    2.31
  -6 -14  -1   23.74    2.17
   6  14   1   24.42    2.34
  -6  14  -2   18.71    2.11
  -6 -14  -2   17.02    2.28
  -6 -14  -2   16.46    1.91
   6  14   2   17.05    2.17
  -6 -14  -3   31.95    2.80
   6  14   3   34.59    2.83
  -6  14  -3   34.99    2.78
  -6  14  -4    1.29    1.48
   6  14   4    2.68    1.62
  -6  14  -5    0.20    1.74
  -6 -14  -5    1.90    1.45
   6  14   5    1.27    1.42
   6  15  -8   -0.54    1.81
   6  15  -7    4.70    1.52
  -6 -15   7    1.85    1.92
   6  15  -6    1.07    1.37
  -6 -15   6    3.06    1.78
   6  15  -5    7.33    1.67
  -6  15   5    5.69    1.26
  -6 -15   5    3.26    1.63
  -6  15   4   12.93    1.20
  -6  15   4   12.86    1.59
  -6  15   4   12.89    1.18
  -6 -15   4   11.39    2.04
   6  15  -4   14.87    1.90
  -6  15   3   16.30    1.42
  -6  15   3   13.59    1.79
  -6 -15   3   13.20    2.04
   6  15  -3   15.53    1.97
  -6  15   2    1.60    1.13
  -6 -15   2    0.46    1.40
   6  15  -2    2.64    1.50
  -6  15   2    1.82    1.62
  -6  15   1   13.98    2.10
  -6  15   1   17.04    1.80
   6  15  -1   12.25    1.77
  -6 -15   1   16.53    2.09
   6  15  -1   12.17    1.93
  -6  15   0   32.50    2.68
  -6 -15   0   35.28    2.59
  -6 -15   0   32.35    2.73
   6  15   0   30.47    2.59
   6  15   0   32.90    2.28
  -6  15   0   38.08    2.44
  -6 -15  -1   99.47    4.53
   6  15   1   89.85    4.19
  -6 -15  -1   94.84    3.94
   6  15   1   89.78    3.59
  -6  15  -1  101.71    4.07
  -6  15  -2   26.13    2.43
  -6 -15  -2   24.08    2.57
  -6 -15  -2   27.56    2.30
   6  15   2   27.00    2.60
   6  15   2   24.33    2.05
  -6  15  -3    1.36    1.53
  -6 -15  -3    2.01    1.69
  -6 -15  -3   -1.06    1.37
   6  15   3   -1.31    1.62
  -6  15  -4   16.51    2.36
   6  15   4   15.44    2.37
  -6  15  -5  140.16    5.76
   6  16  -8    2.82    1.79
   6  16  -7    4.02    1.56
   6  16  -6   20.08    2.15
  -6 -16   6   18.20    2.44
   6  16  -5    2.03    1.47
  -6  16   5    0.76    1.17
  -6 -16   5    0.18    1.68
  -6  16   4    3.10    1.32
  -6 -16   4    4.01    1.67
   6  16  -4    6.30    1.65
  -6  16   3   16.46    1.38
  -6  16   3   15.95    1.89
  -6 -16   3   12.42    1.98
   6  16  -3   13.18    1.87
  -6  16   2    7.29    1.34
  -6 -16   2    6.52    1.75
   6  16  -2    8.38    1.76
  -6  16   2    3.40    1.71
  -6  16   1    7.96    1.47
  -6  16   1   10.52    2.00
   6  16  -1   10.67    1.72
  -6 -16   1    8.39    1.72
   6  16  -1    9.62    1.91
  -6  16   0   11.94    1.71
   6  16   0   12.65    1.72
  -6  16   0   12.85    2.06
  -6 -16   0   13.49    1.86
   6  16   0   15.87    2.15
  -6  16  -1   -0.14    1.31
   6  16   1    0.12    1.32
  -6  16  -1    0.97    1.60
  -6 -16  -1   -0.19    1.71
  -6 -16  -1   -0.41    1.33
   6  16   1    1.58    1.63
  -6  16  -2   17.36    2.09
  -6 -16  -2   14.81    2.23
  -6 -16  -2   13.71    1.87
   6  16   2   13.34    2.15
   6  16   2   10.78    1.71
  -6  16  -3    1.21    1.55
  -6 -16  -3    0.63    1.68
  -6 -16  -3    4.10    1.40
   6  16   3    2.53    1.68
  -6  16  -4   -0.19    1.59
   6  17  -7    2.29    1.53
   6  17  -6    1.98    1.55
   6  17  -5   21.39    2.33
  -6  17   5   19.94    1.88
  -6 -17   5   22.69    2.62
  -6  17   4   13.67    1.77
  -6 -17   4   12.60    2.12
   6  17  -4   11.51    1.98
  -6  17   3    3.24    1.44
  -6 -17   3    3.00    1.60
   6  17  -3    1.74    1.45
  -6  17   2    0.52    1.76
  -6  17   2    1.49    1.01
  -6  17   2    0.76    1.44
  -6 -17   2    0.16    1.50
   6  17  -2    2.30    1.59
  -6  17   1   16.61    1.77
  -6  17   1   21.15    2.48
   6  17  -1   20.16    2.11
  -6 -17   1   16.25    2.04
   6  17  -1   19.07    2.34
  -6  17   0   20.37    2.04
   6  17   0   16.64    1.93
  -6  17   0   18.28    2.44
  -6 -17   0   16.41    2.04
   6  17   0   13.84    2.13
  -6  17  -1    7.36    1.72
   6  17   1    3.94    1.50
  -6  17  -1    5.37    1.87
  -6 -17  -1    5.07    1.53
   6  17   1    6.23    1.90
  -6  17  -2   21.74    2.30
  -6 -17  -2   22.70    2.61
  -6 -17  -2   24.55    2.13
   6  17   2   23.00    2.63
   6  17   2   22.54    2.12
  -6  17  -3    1.57    1.64
  -6  17  -4    0.58    1.60
   6  18  -6    0.65    1.46
   6  18  -5    0.16    1.60
  -6 -18   5   -1.92    1.78
  -6  18   4   -0.83    1.37
  -6 -18   4   -2.69    1.84
   6  18  -4   -0.82    1.59
  -6  18   3    0.30    1.43
  -6 -18   3    1.19    1.56
  -6  18   3    1.69    1.78
   6  18  -3    2.85    1.66
  -6  18   2    3.13    1.83
  -6  18   2    5.19    1.68
  -6 -18   2    5.26    1.66
   6  18  -2    5.01    1.72
  -6  18   1    4.73    1.84
   6  18  -1    8.01    1.85
  -6 -18   1    5.29    1.57
   6  18  -1    5.68    1.79
   6  18   0    9.54    1.91
  -6  18   0    7.89    2.05
  -6 -18   0    8.14    1.66
   6  18   0    7.17    1.94
  -6  18   0   11.81    1.68
   6  18   1    3.10    1.54
  -6  18  -1    1.11    1.77
  -6 -18  -1    3.28    1.37
   6  18   1    1.53    1.59
  -6  18  -1    2.12    1.45
   6  18   2    9.74    1.78
  -6  18  -2    9.71    1.81
  -6  18  -3   13.12    2.14
  -6  18  -4    1.37    1.57
   6  19  -5    1.73    1.62
  -6 -19   5    3.14    1.77
  -6 -19   4    3.10    1.71
   6  19  -4    0.17    1.60
  -6  19   3    1.59    1.53
   6  19  -3   -0.35    1.63
  -6  19   3    3.19    1.90
  -6  19   2    2.54    1.86
  -6  19   2    4.65    1.78
  -6 -19   2    5.52    1.68
   6  19  -2    2.73    1.73
  -6  19   1    2.12    1.90
   6  19  -1    2.60    1.63
  -6 -19   1    2.43    1.50
   6  19  -1   -0.19    1.56
  -6  19   0   15.93    2.46
  -6 -19   0   16.95    2.00
  -6  19  -1   41.29    3.30
   6  19   1   42.49    2.89
  -6 -20   4    2.43    1.67
  -6  20   3    7.09    1.84
  -6 -20   3    3.82    1.68
  -6  20   2    0.83    1.87
  -6  20   2   -1.28    1.66
  -6 -20   2    1.47    1.56
  -6  20   1    0.82    1.83
   6  20  -1    4.23    1.77
  -6  20   1    0.97    1.72
   6  20   0    8.01    1.85
  -6  21   2    2.68    1.70
  -7   0  11    4.96    1.84
  -7   0  10   12.55    2.16
  -7   0   9    9.10    1.98
  -7   0   8    5.86    1.71
  -7   0   7   12.75    1.95
  -7   0   6  145.64    5.18
  -7   0   5  181.12    5.82
  -7   0   4  101.47    2.47
  -7   0   4  101.19    4.07
  -7   0   3   11.51    1.02
  -7   0   2  209.59    5.08
  -7   0   1  311.71    7.13
  -7   0   0  322.14    7.62
  -7   0  -1   76.42    3.28
  -7   0  -2    7.76    1.52
  -7   0  -3  202.20    6.32
  -7   0  -3  198.35    6.11
   7   0   3  196.99    4.24
  -7   0  -4  607.54   13.72
  -7   0  -4  582.26   13.44
   7   0   4  611.88   11.47
  -7   0  -5  279.70    8.16
   7   0   5  293.63    6.59
  -7   0  -6   43.12    3.12
  -7   0  -6   38.48    2.95
  -7   0  -7    1.26    1.54
  -7  -1  11    0.78    1.59
  -7   1  11    2.04    1.71
  -7  -1  10    7.75    1.99
  -7   1  10    4.54    1.76
  -7   1   9    0.33    1.54
  -7  -1   9    2.60    1.61
  -7   1   8    1.69    1.45
  -7  -1   8    0.33    1.42
  -7   1   7    0.29    1.44
  -7  -1   7   -0.62    1.51
  -7   1   6    6.56    1.75
  -7  -1   6    5.91    1.80
  -7   1   5    1.09    1.54
  -7  -1   5    0.71    1.56
  -7  -1   4   29.97    1.26
  -7   1   4   27.55    2.27
  -7  -1   4   28.75    2.41
  -7   1   4   26.92    1.08
  -7  -1   3    0.77    0.21
  -7   1   3    0.95    0.67
  -7   1   2    1.89    0.95
  -7  -1   2   -0.44    0.99
  -7   1   1    0.09    1.12
  -7  -1   1    3.00    1.17
  -7   1   0  106.65    3.75
  -7  -1   0  107.11    3.77
  -7   1  -1   26.48    2.03
  -7  -1  -1   23.18    1.98
  -7   1  -2   29.72    2.20
  -7  -1  -2   28.13    2.21
   7   1   3    0.50    0.59
  -7   1  -3    2.00    1.33
  -7  -1  -3    2.48    1.34
   7  -1   3    1.57    0.69
   7  -1   4    1.51    1.10
  -7   1  -4    5.64    1.78
   7   1   4    2.46    1.04
  -7   1  -4    2.53    1.79
  -7  -1  -4    1.45    1.79
  -7   1  -5    4.35    1.70
  -7  -1  -5    5.71    1.80
   7  -1   5    4.36    1.12
  -7   1  -5    4.33    1.68
  -7  -1  -5    4.06    1.67
  -7   1  -6    0.20    1.45
  -7  -1  -6    0.58    1.40
   7  -1   6    2.71    1.16
  -7   1  -6    1.13    1.31
  -7  -1  -6    0.77    1.37
  -7   1  -7    2.35    1.67
  -7  -1  -7    2.07    1.63
   7  -1   7    3.79    1.41
  -7   2  11   15.98    2.29
  -7  -2  10    4.93    1.84
  -7   2  10    5.76    1.84
  -7   2   9   16.68    2.17
  -7  -2   9   15.30    2.23
  -7   2   8    9.71    1.74
  -7  -2   8    9.72    1.84
  -7   2   7   18.54    2.11
  -7  -2   7   18.89    2.20
  -7   2   6   45.34    2.81
  -7  -2   6   43.86    3.00
  -7   2   5   50.55    2.95
  -7  -2   5   50.57    3.08
  -7   2   4   -0.08    0.42
  -7  -2   4    0.97    0.65
  -7  -2   4    1.53    0.64
  -7   2   4    0.38    1.38
  -7  -2   4    1.14    1.42
  -7  -2   3    4.42    0.91
  -7   2   3    5.45    0.83
  -7   2   2   82.19    2.82
  -7  -2   2   88.28    2.98
  -7   2   1  218.44    5.54
  -7  -2   1  224.33    5.69
  -7   2   0  258.98    6.51
  -7  -2   0  264.34    6.63
  -7   2  -1  114.13    3.99
  -7  -2  -1  104.23    3.93
  -7   2  -2    5.89    1.44
  -7  -2  -2    3.17    1.40
  -7   2  -3  169.42    5.55
  -7  -2  -3  171.74    5.62
   7   2   3  168.98    3.68
  -7  -2  -4  636.33   14.18
  -7   2  -4  634.25   14.08
  -7  -2  -4  634.99   14.16
   7  -2   4  638.73   12.12
  -7   2  -5  247.39    7.59
  -7  -2  -5  242.16    7.47
  -7   2  -5  241.38    7.43
  -7  -2  -5  245.94    7.52
   7  -2   5  250.55    6.03
  -7   2  -6   29.09    2.80
  -7  -2  -6   24.38    2.49
  -7   2  -6   30.40    2.69
  -7  -2  -6   29.98    2.69
   7  -2   6   32.26    2.11
  -7   2  -7   38.54    3.26
  -7  -2  -7   40.08    3.13
   7  -2   7   43.42    2.59
  -7   3  11    0.69    1.58
  -7  -3  10    5.27    1.92
  -7   3  10    5.26    1.85
  -7  -3   9    4.02    1.69
  -7   3   8    2.90    1.52
  -7  -3   8    3.45    1.55
  -7   3   7    0.43    1.29
  -7   3   7   -0.27    1.32
  -7  -3   7    0.49    1.63
  -7   3   6    7.91    1.46
  -7   3   6    6.33    1.68
  -7  -3   6    9.03    2.01
  -7   3   5    8.76    1.74
  -7  -3   5    8.95    1.78
  -7   3   5    7.79    1.24
  -7   3   4   23.79    2.12
  -7  -3   4   21.31    2.15
  -7   3   4   22.79    0.93
  -7  -3   4   25.33    1.19
  -7   3   4   24.15    1.40
  -7   3   3   20.00    1.22
  -7   3   3   20.75    1.12
  -7  -3   3   21.91    1.47
  -7   3   2   24.60    1.63
  -7   3   2   25.34    1.03
  -7  -3   2   27.94    1.81
  -7   3   2   26.02    1.00
  -7   3   1    0.62    0.28
  -7  -3   1   -0.28    1.17
  -7   3   0   39.75    2.31
  -7  -3   0   38.29    2.37
  -7  -3  -1   39.88    2.46
  -7   3  -1   35.25    1.15
  -7   3  -2   11.93    0.86
  -7  -3  -2   10.99    1.60
  -7   3  -3   37.69    1.67
  -7  -3  -3   39.84    2.72
  -7  -3  -4   31.11    2.59
  -7   3  -4   27.66    1.68
   7  -3   4   29.26    1.76
  -7  -3  -4   29.27    2.59
   7  -3   5   18.50    1.60
  -7  -3  -5   17.25    2.18
  -7   3  -5   17.83    2.31
  -7  -3  -5   14.51    2.13
  -7   3  -6    9.37    1.96
  -7  -3  -6    6.88    1.79
   7  -3   6    7.08    1.35
  -7   3  -6    6.42    1.79
  -7  -3  -6    8.37    1.89
  -7   3  -7   11.21    2.10
  -7  -3  -7    6.66    1.81
   7  -3   7    6.69    1.54
  -7   4  11    3.36    1.71
  -7  -4  10    8.42    2.17
  -7   4  10    8.56    1.80
  -7   4   9    5.63    1.67
  -7  -4   9    6.37    1.84
  -7   4   8   -1.04    1.46
  -7   4   8    2.39    1.46
  -7  -4   8   -0.18    1.60
  -7   4   7   20.48    1.94
  -7   4   7   22.40    2.14
  -7  -4   7   20.49    2.43
  -7   4   6  131.46    4.70
  -7  -4   6  132.63    5.13
  -7   4   6  129.34    4.12
  -7  -4   5  119.38    4.74
  -7   4   5  117.58    4.36
  -7  -4   5  115.67    3.31
  -7   4   5  121.65    3.65
  -7   4   4   25.13    1.54
  -7  -4   4   29.22    1.31
  -7   4   3   51.48    1.84
  -7   4   3   48.34    1.86
  -7  -4   3   47.90    2.13
  -7   4   2  289.86    6.56
  -7   4   2  300.04    5.89
  -7  -4   2  308.63    7.00
  -7  -4   1  396.41    8.85
  -7  -4   0  303.03    7.48
  -7  -4  -1    1.12    1.14
  -7   4  -2    4.16    1.56
  -7  -4  -2    4.66    1.38
  -7   4  -2    5.23    0.83
  -7   4  -3  189.69    6.24
  -7  -4  -3  191.86    6.08
  -7   4  -3  184.77    4.50
  -7   4  -4  337.59    7.43
  -7  -4  -4  336.20    8.95
  -7  -4  -4  337.27    9.10
   7  -4   4  354.62    7.52
  -7  -4  -5  225.76    7.03
  -7   4  -5  226.53    5.74
  -7  -4  -5  224.30    7.16
   7  -4   5  233.38    5.86
  -7  -4  -6   26.55    2.49
   7  -4   6   25.90    1.98
  -7  -4  -6   21.44    2.41
  -7  -4  -7    2.59    1.71
   7  -4   7    1.69    1.35
  -7   4  -7    1.64    1.84
  -7  -5  10    1.86    1.89
  -7   5  10    1.22    1.42
  -7   5   9    2.28    1.61
  -7  -5   9    0.58    1.57
  -7   5   9    2.57    1.45
  -7   5   8    5.64    1.61
  -7   5   8    7.73    1.59
  -7  -5   8   10.97    2.13
  -7   5   7   14.50    1.83
  -7  -5   7   15.38    2.12
  -7  -5   6    7.11    1.31
   7   5  -6    8.51    0.93
  -7   5   6    8.23    1.73
  -7  -5   6   10.94    2.01
  -7  -5   5    3.05    1.02
   7   5  -5    1.75    0.89
  -7   5   5    3.21    1.45
  -7   5   5    1.62    1.11
  -7   5   4   40.71    1.96
   7   5  -4   40.86    1.90
  -7   5   4   37.69    1.35
  -7  -5   4   43.21    1.62
  -7  -5   3   24.59    1.68
  -7   5   3   22.61    1.35
  -7  -5   2   14.34    1.53
  -7   5   2   15.41    1.18
  -7  -5   1    3.80    1.33
  -7   5   1    3.18    0.85
  -7  -5   0  119.41    4.22
  -7  -5  -1   42.06    2.58
  -7   5  -2   61.40    3.35
  -7  -5  -2   64.99    3.27
  -7   5  -2   61.07    2.17
  -7   5  -3    1.66    1.63
  -7  -5  -3    1.55    1.45
  -7   5  -3    2.65    0.97
  -7   5  -4    2.48    1.64
  -7  -5  -4    4.03    1.64
  -7   5  -4    1.17    0.99
  -7  -5  -4    2.87    1.57
  -7   5  -5    0.10    1.10
  -7  -5  -5    1.72    1.45
  -7  -5  -5    0.74    1.38
   7  -5   5    1.91    1.10
   7  -5   6    3.29    1.22
  -7  -5  -6    4.71    1.60
  -7   5  -6    4.23    1.24
   7  -5   7   27.00    2.27
  -7  -5  -7   28.49    2.82
  -7   5  -7   25.25    2.11
  -7   6  10    3.86    1.78
  -7   6  10    4.94    1.62
  -7   6   9    8.48    1.93
  -7  -6   9    7.51    1.97
  -7   6   9    9.20    1.67
  -7  -6   8    6.26    1.61
   7   6  -8    6.40    0.64
  -7   6   8    7.33    1.55
  -7  -6   8    9.40    2.17
  -7   6   8    4.83    1.72
   7   6  -7   11.52    1.66
  -7   6   7   11.99    1.88
  -7  -6   7   11.11    1.59
   7   6  -7   12.30    0.99
  -7   6   7   13.50    1.75
  -7  -6   7   16.10    2.15
   7   6  -6   23.90    1.44
  -7   6   6   24.57    2.11
  -7  -6   6   24.41    1.82
  -7   6   6   24.29    1.98
  -7   6   5   36.77    2.19
   7   6  -5   39.15    1.89
  -7   6   5   37.01    2.46
  -7  -6   5   38.58    1.90
  -7   6   4    1.66    0.59
   7   6  -4    0.46    0.96
   7   6  -3   19.20    0.98
   7   6  -3   20.23    1.61
  -7  -6   3   19.89    1.59
  -7  -6   3   21.40    2.19
   7   6  -2   38.20    2.21
  -7   6   2   36.61    1.79
  -7  -6   2   37.06    2.20
  -7  -6   1  195.10    5.60
  -7   6   1  199.15    4.56
  -7  -6   0  259.71    6.89
  -7  -6  -1    3.71    1.32
  -7   6  -1    4.40    1.48
  -7   6  -2    1.26    1.53
  -7  -6  -2    1.30    1.34
  -7   6  -3  178.79    6.08
  -7  -6  -3  179.13    5.99
  -7   6  -3  181.94    4.69
  -7   6  -4  329.60    9.04
  -7  -6  -4  329.07    8.69
  -7  -6  -4  317.58    8.83
  -7   6  -4  317.36    7.31
  -7  -6  -5  181.33    6.10
  -7  -6  -5  188.07    6.43
   7  -6   5  186.26    5.17
  -7   6  -5  170.50    5.02
  -7   6  -5  180.68    6.52
   7  -6   6    2.68    1.20
  -7   6  -6    4.46    1.27
  -7  -6  -6    7.00    1.76
  -7  -6  -7   44.23    3.32
  -7   6  -7   49.21    2.82
   7  -6   7   46.22    2.82
  -7  -7  11    2.97    1.80
  -7  -7  10    4.31    1.76
  -7   7  10    3.24    1.96
  -7   7  10    3.60    1.46
  -7  -7   9    0.59    1.46
  -7  -7   9    0.41    1.76
  -7   7   9    1.61    1.66
  -7   7   8    4.75    1.74
  -7  -7   8    4.57    1.48
   7   7  -8    6.98    0.90
  -7   7   8    6.17    1.48
  -7  -7   8    5.99    1.86
   7   7  -8    5.41    1.58
  -7  -7   7   11.01    1.63
   7   7  -7    9.67    1.09
  -7   7   7    9.88    1.69
  -7   7   7    8.35    1.72
   7   7  -7   10.58    1.64
  -7  -7   6    1.25    1.10
   7   7  -6   -0.09    0.74
  -7   7   6    1.52    1.34
   7   7  -6    1.54    0.96
  -7   7   6    1.80    1.45
  -7   7   5    1.17    1.30
   7   7  -5    0.60    0.94
  -7  -7   5    0.65    0.97
   7   7  -4    6.55    1.14
  -7  -7   4    5.09    1.61
  -7  -7   3   44.93    2.32
   7   7  -3   49.51    2.36
  -7  -7   3   50.39    3.06
   7   7  -3   43.95    1.63
   7   7  -2   76.27    3.14
  -7  -7   2   84.90    3.90
  -7   7   2   81.93    2.79
  -7  -7   2   78.66    3.22
   7   7  -1   23.73    2.05
  -7   7   1   26.00    1.66
  -7  -7   1   27.23    2.15
  -7  -7   0   53.19    2.91
  -7   7  -1   53.12    3.05
  -7  -7  -1   58.08    3.03
  -7   7  -2   84.82    3.99
  -7  -7  -2   85.84    3.89
  -7   7  -3  139.03    5.28
  -7  -7  -3  121.21    4.85
  -7   7  -4   12.49    2.09
  -7   7  -4   15.22    1.57
  -7  -7  -4   12.84    2.01
  -7  -7  -5   35.79    2.76
  -7  -7  -5   37.36    2.89
  -7   7  -5   35.89    2.22
  -7   7  -5   41.02    3.20
  -7   7  -6   22.49    2.65
  -7  -7  -6   25.57    2.43
   7  -7   6   30.45    2.19
  -7  -7  -7   60.27    3.65
  -7   7  -7   52.10    2.94
  -7  -8  10    6.54    1.93
  -7   8  10    9.82    2.33
  -7   8   9    3.80    1.86
  -7  -8   9    3.42    1.62
  -7  -8   9    4.16    1.91
  -7   8   9    2.50    1.29
   7   8  -9    4.05    1.67
  -7  -8   8    0.39    1.33
  -7   8   8   -0.15    1.48
   7   8  -8   -1.73    1.56
  -7   8   8    0.72    1.25
   7   8  -7   16.95    1.92
  -7  -8   7   16.87    1.80
  -7   8   7   15.56    1.99
  -7   8   7   19.79    1.86
   7   8  -7   17.60    1.41
  -7   8   6   99.49    3.55
   7   8  -6   98.17    2.75
  -7   8   6  103.95    3.46
  -7  -8   6   92.72    3.01
   7   8  -5   77.00    2.80
  -7   8   5   77.50    3.26
  -7  -8   5   70.65    3.86
  -7  -8   4   12.68    2.01
   7   8  -4   13.06    1.49
  -7  -8   3   27.50    1.93
   7   8  -3   29.01    1.99
  -7  -8   2  125.51    4.29
   7   8  -2  127.45    4.23
  -7  -8   2  122.72    4.85
  -7   8   2  135.84    3.92
   7   8  -1  209.67    5.90
  -7   8   1  209.25    5.18
  -7  -8   1  205.80    5.99
  -7   8   0  140.11    4.91
   7   8   0  133.97    4.70
  -7  -8   0  137.76    4.89
  -7   8  -1   50.12    2.96
  -7  -8  -1   47.26    2.86
   7   8   1   43.24    1.42
  -7  -8  -2    4.97    1.68
  -7   8  -2    7.19    1.73
   7   8   2    7.29    0.86
  -7   8  -3  118.16    4.97
   7   8   3  114.03    3.17
  -7  -8  -3  122.98    4.91
  -7  -8  -4   85.50    4.16
  -7   8  -4   79.85    4.18
  -7  -8  -5   85.80    4.01
  -7  -8  -5   85.59    4.27
  -7   8  -5   84.41    3.44
  -7   8  -5   94.34    4.64
  -7   8  -6    3.95    1.65
  -7   8  -6    2.30    1.27
  -7  -8  -6    2.82    1.51
  -7  -8  -7    3.40    1.84
  -7  -9  10    2.58    1.67
   7   9 -10    0.34    1.74
  -7   9  10   -0.76    1.82
  -7  -9   9    1.81    1.53
  -7   9   9    1.73    1.71
  -7  -9   9   -0.85    1.80
   7   9  -9   -0.77    1.62
   7   9  -8    5.23    1.69
  -7  -9   8    7.51    1.68
  -7   9   8    6.81    1.40
  -7   9   8    5.17    1.82
  -7  -9   7   22.59    2.00
   7   9  -7   22.59    1.63
  -7   9   7   25.30    2.04
   7   9  -7   28.24    2.29
   7   9  -6    2.60    1.18
  -7   9   6    4.91    1.38
  -7  -9   6    2.91    1.77
   7   9  -6    2.69    1.13
  -7  -9   6    2.04    1.22
  -7   9   5    1.12    0.59
  -7   9   5    0.33    1.23
  -7  -9   5    2.94    1.80
   7   9  -5    1.72    1.10
   7   9  -4   91.59    3.35
  -7  -9   4   91.57    4.29
   7   9  -3   32.57    2.15
  -7  -9   3   35.04    2.76
  -7  -9   2   35.49    2.39
   7   9  -2   34.88    2.26
  -7  -9   2   29.67    2.51
  -7   9   2   35.29    2.14
  -7   9   1    4.31    1.25
  -7  -9   1    1.56    1.39
  -7  -9   1    4.28    1.67
   7   9  -1    3.31    1.50
  -7   9   0   94.53    3.98
   7   9   0   92.31    3.87
  -7  -9   0   90.31    3.95
  -7  -9  -1    1.37    1.42
  -7   9  -1    0.60    1.29
   7   9   1   -0.08    0.62
  -7   9  -2  130.92    4.99
  -7  -9  -2  120.90    4.85
   7   9   2  122.81    3.20
  -7   9  -3   36.10    2.95
  -7  -9  -3   36.60    2.83
   7   9   3   36.37    1.78
  -7  -9  -4    2.24    1.53
  -7   9  -4    1.52    1.58
   7   9   4    1.09    1.02
  -7  -9  -5    0.60    1.51
  -7   9  -5   -0.62    1.71
  -7  -9  -5    1.33    1.34
  -7   9  -5    1.47    1.24
  -7  -9  -6    5.93    1.66
  -7   9  -6    5.50    1.47
  -7  -9  -7   64.06    3.77
   7  10 -10   -0.35    1.66
  -7 -10  10    1.20    1.62
  -7 -10   9    2.30    1.51
   7  10  -9   -0.64    1.65
  -7  10   9    0.72    1.75
  -7 -10   8    7.04    1.68
  -7  10   8    4.07    1.84
   7  10  -8    2.57    1.59
  -7  10   8    5.28    1.32
  -7  10   7    2.79    1.60
  -7 -10   7    3.19    1.41
   7  10  -7    2.51    1.55
  -7  10   7    1.15    1.17
  -7 -10   7    3.54    1.88
   7  10  -7    0.61    1.07
  -7  10   6    9.38    0.49
  -7  10   6   14.18    1.63
  -7 -10   6   16.02    2.37
   7  10  -6   15.46    1.59
   7  10  -6   14.57    1.76
  -7  10   5   11.59    0.95
  -7  10   5   16.17    1.70
  -7 -10   5   15.23    2.10
   7  10  -5   13.45    1.55
  -7  10   4    1.91    0.91
  -7 -10   4    1.54    1.67
   7  10  -4    0.42    1.18
  -7 -10   3    2.14    1.74
   7  10  -3    2.12    1.22
  -7 -10   2   23.55    2.15
  -7 -10   2   25.07    2.48
   7  10  -2   23.94    2.07
  -7  10   2   22.84    1.92
  -7 -10   1   90.49    3.95
  -7  10   1  102.45    4.05
   7  10  -1  103.79    4.03
  -7 -10   1   91.55    4.16
  -7  10   1  102.28    3.59
  -7  10   0  133.71    4.82
   7  10   0  137.39    4.86
  -7  10   0  131.25    4.18
  -7 -10   0  128.06    4.82
  -7 -10  -1    5.37    1.68
  -7  10  -1    6.94    1.70
   7  10   1    7.56    1.75
  -7 -10  -2    4.42    1.70
  -7  10  -2    2.78    1.64
   7  10   2    3.76    0.97
  -7 -10  -3  104.32    4.64
   7  10   3  104.42    3.20
  -7  10  -3  101.11    4.63
  -7 -10  -4  145.39    5.68
   7  10   4  147.47    4.20
  -7  10  -4  159.65    5.98
  -7 -10  -5   72.85    3.62
  -7  10  -5   70.54    3.30
  -7 -10  -5   70.39    4.00
  -7  10  -5   67.07    4.07
  -7 -10  -6    2.76    1.51
  -7  10  -6    1.42    1.42
  -7 -10  -7   22.40    2.44
  -7 -11  10    3.86    1.71
   7  11 -10    1.62    1.78
  -7 -11   9    0.94    1.57
  -7  11   9    1.30    1.84
   7  11  -9   -0.16    1.63
  -7 -11   8   10.86    1.79
   7  11  -8   11.37    1.94
  -7 -11   8    8.47    2.14
  -7  11   8    6.58    1.95
   7  11  -7   24.02    2.22
  -7  11   7   23.06    1.85
  -7 -11   7   22.85    2.74
   7  11  -7   20.45    1.76
  -7 -11   7   24.78    2.10
  -7  11   6    0.69    1.07
   7  11  -6    0.23    1.33
  -7 -11   6    1.71    1.84
  -7  11   6    0.24    0.48
   7  11  -6    1.21    1.19
  -7  11   5   -0.17    0.77
   7  11  -5   -0.41    0.84
  -7  11   5    1.02    1.15
  -7 -11   5   -1.45    1.85
   7  11  -5   -1.59    1.27
  -7  11   4    0.77    0.89
  -7 -11   4    1.74    1.50
   7  11  -4    0.56    1.21
   7  11  -3   46.28    2.62
  -7 -11   3   47.08    3.14
  -7 -11   2   68.10    3.35
  -7  11   2   68.43    3.21
   7  11  -2   71.54    3.32
  -7 -11   2   73.23    3.81
  -7  11   2   69.34    3.16
  -7  11   1   10.79    1.65
  -7  11   1    8.79    1.65
  -7 -11   1   13.88    1.97
  -7 -11   1   11.19    1.99
   7  11  -1   11.79    1.86
  -7  11   0   28.60    2.35
  -7 -11   0   22.69    2.26
  -7  11   0   24.62    2.02
  -7 -11   0   26.36    2.42
   7  11   0   23.19    2.28
  -7  11  -1  107.48    4.38
   7  11   1  108.50    4.44
  -7 -11  -1  108.19    4.61
  -7  11  -2   64.82    3.56
   7  11   2   55.10    3.33
  -7 -11  -2   57.11    3.47
   7  11   3   98.25    3.19
  -7 -11  -3  100.37    4.71
  -7  11  -3   95.99    4.50
  -7  11  -4    7.24    2.06
  -7 -11  -4    9.04    2.02
   7  11   4    7.01    1.33
  -7 -11  -5   31.33    2.91
  -7 -11  -5   31.69    2.56
  -7 -11  -6   19.33    2.22
  -7  11  -6   25.35    2.42
  -7 -12   9    1.13    1.54
   7  12  -9    0.85    1.70
   7  12  -8    1.06    1.58
  -7  12   8   -1.05    1.75
  -7 -12   8   -0.29    1.52
  -7 -12   7   -1.03    1.78
   7  12  -7    1.37    1.57
   7  12  -7    1.88    1.29
  -7  12   6   31.35    1.95
   7  12  -6   23.38    2.15
   7  12  -6   29.96    2.11
  -7 -12   6   29.27    2.84
  -7  12   5   22.37    1.74
  -7 -12   5   19.56    2.55
   7  12  -5   19.94    1.86
  -7  12   5   23.40    1.50
  -7  12   4    4.34    1.15
  -7 -12   4    2.48    1.69
   7  12  -4    6.20    1.45
  -7  12   3   12.63    1.68
  -7 -12   3   13.18    2.10
   7  12  -3   12.81    1.74
  -7  12   2   48.77    2.76
   7  12  -2   43.57    2.76
  -7 -12   2   48.15    3.17
  -7  12   2   48.48    2.80
  -7  12   1   76.01    3.46
  -7 -12   1   79.75    3.79
   7  12  -1   73.09    3.55
  -7 -12   1   79.60    3.96
  -7  12   1   80.04    3.44
  -7 -12   0   52.19    3.21
  -7  12   0   53.44    3.01
   7  12   0   50.88    3.10
  -7 -12   0   50.66    3.12
  -7  12   0   56.02    2.89
  -7  12  -1    1.07    1.48
  -7 -12  -1    0.69    1.53
   7  12   1    0.48    1.50
  -7  12  -2    6.22    1.78
  -7 -12  -2    3.84    1.73
   7  12   2    6.99    1.84
   7  12   3   41.75    2.16
  -7 -12  -3   46.53    3.31
  -7  12  -3   43.83    3.15
  -7 -12  -4   46.13    3.41
  -7  12  -4   55.87    3.61
  -7  12  -5   25.88    2.91
  -7 -12  -5   31.88    2.59
  -7 -13   9   -0.66    1.52
   7  13  -8    9.09    1.87
  -7  13   8    5.82    2.17
   7  13  -7   28.20    2.15
   7  13  -7   29.76    2.59
   7  13  -6    3.36    1.64
  -7  13   6    4.26    1.12
  -7 -13   6    1.40    1.79
   7  13  -6    0.70    1.26
  -7  13   5    2.00    1.00
  -7  13   5    1.63    1.06
  -7 -13   5   -0.38    1.73
   7  13  -5    2.20    1.33
  -7  13   4   46.16    2.31
  -7  13   4   41.58    2.35
  -7  13   4   39.78    2.21
   7  13  -4   41.63    2.60
  -7 -13   4   38.18    2.96
  -7  13   3   27.29    2.08
  -7 -13   3   23.90    2.53
   7  13  -3   24.47    2.19
  -7  13   2   56.39    2.93
   7  13  -2   57.55    3.13
  -7 -13   2   56.53    3.37
  -7  13   2   62.16    3.16
  -7  13   1    4.47    1.57
  -7 -13   1    3.88    1.53
  -7 -13   1    3.78    1.70
   7  13  -1    3.11    1.49
  -7  13   0   36.12    2.62
   7  13   0   39.68    2.84
  -7 -13   0   33.88    2.81
  -7 -13   0   38.46    2.79
  -7  13   0   44.23    2.70
  -7  13  -1    8.74    1.89
  -7 -13  -1    6.82    1.79
  -7 -13  -1    7.36    1.79
   7  13   1    6.49    1.79
   7  13   2   52.03    3.31
  -7  13  -2   52.61    3.24
  -7 -13  -2   46.55    3.24
  -7  13  -3    6.50    1.77
  -7 -13  -3    5.23    1.78
   7  13   3    4.53    1.19
  -7  13  -4    1.00    1.75
  -7 -13  -4    1.49    1.73
  -7 -13  -5    1.60    1.38
   7  14  -8    4.93    1.91
  -7 -14   6    1.64    1.74
   7  14  -6    1.01    1.32
  -7  14   5    2.42    1.06
  -7  14   5    5.58    1.15
  -7 -14   5    1.16    1.74
   7  14  -5    3.53    1.44
  -7  14   4    0.58    1.05
  -7  14   4   -0.10    1.15
  -7  14   4    1.29    1.04
  -7 -14   4    1.11    1.66
   7  14  -4   -0.41    1.41
  -7  14   3   -0.54    1.25
  -7 -14   3    1.24    1.68
   7  14  -3    1.69    1.46
  -7  14   2    2.40    1.64
  -7  14   2    1.53    1.31
  -7 -14   2    2.05    1.47
   7  14  -2    4.58    1.61
  -7  14   1    2.34    1.35
  -7  14   1    7.75    1.77
  -7 -14   1    5.29    1.78
   7  14  -1    5.58    1.68
  -7  14   0   12.80    1.88
  -7  14   0   13.36    2.01
  -7 -14   0   10.74    1.94
  -7 -14   0    8.55    1.86
   7  14   0   12.67    2.09
  -7  14  -1   12.61    1.97
  -7 -14  -1   14.08    2.27
  -7 -14  -1   12.73    1.98
   7  14   1   16.80    2.34
   7  14   2   -0.49    0.98
  -7  14  -2    1.73    1.47
  -7 -14  -2    2.17    1.70
   7  14   2    2.02    1.57
  -7 -14  -2    2.80    1.49
  -7  14  -3   15.72    2.29
  -7 -14  -3   16.61    2.44
   7  14   3   16.47    2.35
  -7  14  -4   54.60    3.72
   7  15  -7   10.49    2.07
  -7 -15   6    0.63    1.74
   7  15  -6    2.82    1.43
  -7 -15   5    0.79    1.73
   7  15  -5    2.64    1.39
  -7  15   4   -0.22    1.19
  -7  15   4    2.17    1.06
  -7 -15   4    1.32    1.72
   7  15  -4   -0.43    1.42
  -7  15   3   27.75    2.03
  -7  15   3   32.02    2.29
   7  15  -3   33.02    2.54
  -7 -15   3   26.25    2.60
   7  15  -2   40.03    2.85
  -7 -15   2   39.30    2.94
  -7  15   2   45.21    2.95
  -7  15   1   -0.13    1.36
  -7  15   1   -1.19    1.53
  -7 -15   1   -1.67    1.65
   7  15  -1   -1.30    1.56
  -7  15   0    4.34    1.54
  -7  15   0    7.80    1.86
   7  15   0    6.44    1.32
  -7 -15   0    4.86    1.73
  -7 -15   0    4.89    1.74
   7  15   0    4.65    1.70
  -7 -15  -1   79.62    4.25
   7  15   1   82.56    4.16
  -7 -15  -1   76.53    3.85
   7  15   1   80.87    3.23
  -7  15  -1   83.87    3.93
   7  15   2   20.03    1.89
  -7  15  -2   19.11    2.33
  -7 -15  -2   18.48    2.52
   7  15   2   18.64    2.44
  -7 -15  -2   23.41    2.39
  -7  15  -3   18.36    2.40
  -7 -15  -3   13.76    1.91
  -7  15  -4   14.31    2.42
   7  16  -6    5.59    1.57
  -7 -16   5    2.23    1.76
   7  16  -5    3.40    1.53
  -7  16   4    3.10    1.29
  -7 -16   4    2.30    1.74
   7  16  -4    1.52    1.46
  -7  16   3    2.29    1.46
  -7 -16   3    0.55    1.69
   7  16  -3    5.03    1.77
  -7  16   3    4.35    1.75
  -7  16   2   15.01    2.18
  -7  16   2   14.14    1.72
  -7 -16   2   13.42    2.09
   7  16  -2   12.40    2.09
  -7  16   1   11.70    1.77
  -7  16   1    9.61    1.94
  -7 -16   1   12.70    2.04
   7  16  -1   13.34    2.04
  -7  16   0    2.03    1.41
  -7  16   0    2.74    1.75
   7  16   0    4.02    1.41
  -7 -16   0    1.47    1.50
   7  16   0    1.79    1.72
  -7  16  -1    1.12    1.41
  -7 -16  -1    4.09    1.95
  -7 -16  -1    0.96    1.56
   7  16   1    1.51    1.70
  -7  16  -2   -0.18    1.52
  -7 -16  -2   -0.48    1.53
  -7  16  -3    5.41    1.83
  -7 -16  -3    2.79    1.45
   7  17  -6   -0.15    1.44
  -7 -17   5   -1.44    1.87
   7  17  -5   -1.10    1.52
  -7 -17   4   19.52    2.55
   7  17  -4   17.75    2.26
  -7  17   3   16.25    2.00
  -7 -17   3   20.20    2.52
   7  17  -3   19.54    2.34
  -7  17   3   21.71    2.53
  -7  17   2   29.39    2.80
  -7 -17   2   28.90    2.75
   7  17  -2   34.64    2.80
  -7  17   1   -0.17    1.76
  -7 -17   1   -1.53    1.50
   7  17  -1    1.07    1.66
  -7 -17   0   34.77    2.78
   7  17   0   35.91    3.02
  -7  17   0   42.06    3.09
  -7  17   0   36.21    2.66
  -7  17  -1    2.76    1.64
  -7 -17  -1    4.77    1.61
  -7  17  -2   36.63    2.98
  -7 -17  -2   37.93    2.75
  -7  17  -3   -0.78    1.65
   7  18  -5   -0.17    1.44
  -7 -18   4    1.98    1.77
   7  18  -4    4.43    1.76
  -7  18   3   -0.57    1.68
  -7 -18   3    1.13    1.69
   7  18  -3    0.87    1.64
  -7  18   2    2.77    1.87
  -7  18   2    2.83    1.65
  -7 -18   2    1.79    1.73
   7  18  -2    0.18    1.70
  -7  18   1   -0.18    1.78
  -7 -18   1   -0.68    1.61
  -7  18   0    3.31    1.87
  -7 -18   0    1.48    1.52
  -7  19   3    9.39    2.24
  -7 -19   3   11.26    2.17
  -7  19   2   13.35    2.38
  -7  19   2   14.80    2.20
  -7 -19   2   12.97    2.16
  -7  19   1    0.20    1.85
  -7 -19   1    1.04    1.53
  -7  19   0    2.74    1.85
  -7 -20   3    5.38    1.88
  -8   0  10    2.90    1.77
  -8   0   9   26.84    2.81
  -8   0   8   39.67    3.04
  -8   0   7    8.41    1.87
  -8   0   6    6.50    1.74
  -8   0   5   55.41    3.38
  -8   0   4  267.54    7.59
  -8   0   4  258.91    5.39
  -8   0   3  219.72    5.20
  -8   0   2   17.54    1.49
  -8   0   1   58.27    2.71
  -8   0   0  277.05    7.07
  -8   0  -1  241.32    6.71
  -8   0  -2   62.68    3.30
  -8   0  -3    4.85    1.61
  -8   0  -3    2.87    1.70
  -8   0  -4   66.52    3.75
  -8   0  -4   69.02    3.74
   8   0   4   62.69    2.03
  -8   0  -5  136.33    5.52
  -8   0  -5  133.81    5.38
  -8   0  -6   84.50    4.50
  -8   0  -6   94.31    4.60
  -8  -1  10    0.40    1.63
  -8   1  10    0.57    1.67
  -8   1   9    2.89    1.83
  -8   1   8    7.22    2.02
  -8  -1   8    7.40    2.04
  -8   1   7    1.32    1.48
  -8  -1   7   -0.69    1.50
  -8   1   6    0.16    1.43
  -8  -1   6   -0.17    1.53
  -8   1   5   13.68    2.10
  -8  -1   5    8.56    2.08
  -8  -1   4   -0.40    0.44
  -8   1   4   -0.46    0.75
  -8  -1   4    0.66    0.87
  -8   1   4    1.67    1.67
  -8  -1   3    4.53    1.12
  -8   1   3    1.62    1.06
  -8   1   2    9.41    1.23
  -8  -1   2    6.68    1.20
  -8  -1   1   25.43    1.89
  -8   1   1   20.65    1.75
  -8   1   0    0.91    1.25
  -8  -1   0    2.08    1.31
  -8   1  -1   21.19    2.15
  -8  -1  -1   19.25    2.03
  -8   1  -2   12.32    1.80
  -8  -1  -2   11.98    1.81
  -8   1  -3    2.22    1.63
  -8  -1  -3    2.55    1.52
   8   1   4   -0.49    0.68
  -8   1  -4    4.24    1.74
  -8  -1  -4    2.83    1.48
  -8   1  -4    1.56    1.54
  -8  -1  -4    0.17    1.38
  -8   1  -5    1.42    1.61
  -8  -1  -5    3.00    1.56
  -8   1  -5    4.17    1.55
  -8  -1  -5    3.80    1.59
  -8  -1  -6    1.07    1.49
  -8  -1  -6    1.85    1.53
  -8  -2  10   11.40    2.29
  -8   2  10   13.92    2.31
  -8   2   9   26.50    2.67
  -8  -2   9   26.71    2.82
  -8   2   8   24.78    2.52
  -8  -2   8   23.67    2.63
  -8   2   7   10.11    1.86
  -8  -2   7   13.39    2.08
  -8   2   6   11.66    1.93
  -8  -2   6    9.89    2.04
  -8   2   5   78.95    3.81
  -8  -2   5   78.59    3.99
  -8  -2   5   73.17    2.31
  -8  -2   4   56.71    2.09
  -8   2   4   48.99    3.07
  -8  -2   4   51.79    3.29
  -8   2   4   51.74    1.73
  -8   2   3   98.28    3.00
  -8  -2   3   95.31    3.14
  -8  -2   2   17.45    1.53
  -8   2   2   15.58    1.43
  -8   2   1   35.29    2.14
  -8  -2   1   32.95    2.14
  -8   2   0  110.24    3.98
  -8  -2   0  105.06    3.94
  -8   2  -1  253.43    6.93
  -8  -2  -1  252.68    6.97
  -8   2  -2   69.81    3.46
  -8  -2  -2   72.80    3.55
  -8   2  -3   16.89    2.19
  -8  -2  -3   16.27    2.09
  -8  -2  -4  125.44    5.13
  -8   2  -4  125.56    4.95
  -8  -2  -4  119.16    4.94
   8   2   4  112.76    2.87
  -8   2  -5  200.40    6.99
  -8  -2  -5  203.57    6.96
  -8   2  -5  213.92    7.01
  -8  -2  -5  218.83    7.10
  -8  -2  -6  227.87    7.57
  -8   2  -6  227.48    7.50
  -8   3  11    1.12    1.60
  -8   3  10    0.18    1.56
  -8   3   9    1.02    1.68
  -8  -3   9    2.00    1.86
  -8   3   8    1.96    1.63
  -8  -3   8    0.76    1.74
  -8   3   7    0.78    1.41
  -8  -3   7    3.07    1.62
  -8  -3   6    1.99    0.98
  -8   3   6    0.46    1.45
  -8  -3   6    0.18    1.59
  -8  -3   5    2.37    0.85
  -8  -3   5    4.08    1.75
  -8   3   4    0.27    0.67
  -8  -3   4    2.97    1.01
  -8  -3   3    2.50    1.11
  -8   3   3   -0.95    1.09
  -8  -3   2    3.54    1.12
  -8   3   2    3.05    1.00
  -8   3   1    0.29    1.09
  -8  -3   1    0.86    1.15
  -8   3   0   13.60    1.77
  -8  -3   0   15.28    1.82
  -8   3  -1    4.62    1.59
  -8  -3  -1    3.36    1.52
  -8   3  -2   12.72    2.10
  -8   3  -2   10.91    1.79
  -8   3  -3   25.25    2.49
  -8  -3  -3   24.27    2.40
  -8  -3  -4   24.97    2.55
  -8   3  -4   19.32    2.34
  -8  -3  -4   20.78    2.28
   8   3   4   18.09    1.09
  -8  -3  -5    8.80    1.97
  -8   3  -5   13.28    2.06
  -8  -3  -5   12.16    2.01
  -8  -3  -6    5.36    1.77
  -8   4  10    2.24    1.59
  -8   4   9   17.91    2.29
  -8  -4   9   18.85    2.60
  -8   4   8   42.86    2.96
  -8  -4   8   43.25    3.25
  -8  -4   7    6.55    1.30
  -8   4   7    6.26    1.66
  -8  -4   7    4.08    1.91
  -8  -4   6    5.99    1.11
  -8   4   6    5.85    1.23
  -8   4   6   10.97    1.85
  -8  -4   6    9.33    2.08
  -8   4   5   46.55    2.96
  -8  -4   5   49.57    3.31
  -8  -4   5   43.23    1.74
  -8   4   5   47.48    2.13
  -8  -4   4  203.27    4.82
  -8   4   4  187.01    4.11
  -8   4   4  195.28    4.49
  -8   4   3  114.51    3.30
  -8   4   3  118.74    2.85
  -8  -4   3  120.32    3.69
  -8   4   2    4.78    0.48
  -8  -4   2    6.50    1.28
  -8   4   2    4.72    1.09
  -8   4   1   67.55    2.91
  -8  -4   1   71.57    3.10
  -8   4   0  231.22    6.26
  -8  -4   0  228.81    6.42
  -8   4  -1  250.81    6.92
  -8  -4  -1  255.48    7.08
  -8   4  -2   95.59    4.34
  -8   4  -2   89.33    3.90
  -8  -4  -2   96.68    4.09
  -8   4  -3    2.99    1.71
  -8   4  -3    0.80    1.48
  -8  -4  -3    2.98    1.58
  -8   4  -4   43.99    3.09
  -8  -4  -4   45.56    3.12
   8   4   4   42.33    1.61
  -8  -4  -5   76.04    3.99
  -8   4  -5   76.86    4.05
  -8  -4  -5   71.34    3.90
  -8  -4  -6  116.35    5.14
  -8   5   9    0.48    1.54
  -8  -5   9    2.94    2.08
  -8   5   8    1.15    1.47
  -8  -5   8    1.58    1.39
  -8   5   8    4.31    1.70
  -8  -5   8    2.19    1.90
  -8  -5   7   13.17    1.55
  -8   5   7   13.56    1.72
  -8   5   7   16.50    2.01
  -8  -5   7   11.99    2.16
  -8  -5   6   10.05    1.21
  -8   5   6    8.98    1.78
  -8  -5   6   11.57    2.13
  -8   5   6   11.20    1.49
  -8   5   5   14.29    1.46
  -8   5   5   16.47    2.02
  -8  -5   5   14.91    1.17
  -8   5   4    0.64    0.97
  -8   5   4   -0.08    0.70
  -8   5   3   12.09    1.14
  -8  -5   3   15.52    1.56
  -8   5   3   12.91    1.33
  -8   5   3   15.73    1.19
  -8   5   2   44.14    2.15
  -8   5   2   40.82    1.52
  -8  -5   2   44.34    2.41
  -8  -5   1   55.69    2.85
  -8  -5   0    1.04    1.33
  -8   5  -1   21.52    1.11
  -8  -5  -1   28.51    2.41
  -8   5  -2   39.32    2.95
  -8  -5  -2   39.70    2.79
  -8   5  -2   38.16    1.59
  -8   5  -3    6.20    1.91
  -8  -5  -3    7.27    1.77
  -8   5  -3    5.37    0.99
  -8   5  -4    8.96    1.97
  -8  -5  -4    6.76    1.86
  -8   5  -4    6.91    1.12
  -8  -5  -4    9.57    1.91
  -8  -5  -5    0.39    1.40
  -8  -5  -5    2.59    1.53
  -8  -5  -6    1.82    1.70
  -8  -6   9    9.14    1.85
  -8   6   9    6.93    1.93
  -8   6   9   11.78    1.87
  -8  -6   9    9.66    2.13
  -8  -6   8   22.73    2.10
  -8   6   8   20.03    2.24
  -8   6   8   23.08    2.32
  -8  -6   8   22.63    2.71
  -8  -6   7    7.82    1.41
  -8   6   7    7.36    1.59
  -8  -6   7    6.64    2.02
  -8   6   7    8.93    1.61
  -8  -6   6    2.32    0.95
  -8   6   6    0.91    1.17
  -8   6   6    2.68    1.46
  -8   6   5   44.69    2.27
  -8   6   5   42.03    2.77
  -8   6   4   26.39    1.69
  -8   6   4   25.78    1.32
  -8  -6   3   79.99    3.15
  -8   6   3   75.25    2.67
  -8  -6   3   82.29    4.13
  -8   6   2   -0.37    0.77
  -8  -6   2   -0.22    1.17
  -8  -6   1    6.14    1.47
  -8  -6   0   31.76    2.39
  -8   6  -1  264.89    7.74
  -8  -6  -1  257.11    7.32
  -8   6  -2  143.94    5.45
  -8  -6  -2  131.93    5.01
  -8   6  -2  131.17    3.49
  -8   6  -3    3.83    0.97
  -8   6  -3    3.43    1.67
  -8  -6  -3    4.30    1.64
  -8   6  -4   74.69    2.78
  -8   6  -4   79.38    4.32
  -8  -6  -4   75.13    3.91
  -8  -6  -4   82.20    4.11
  -8  -6  -5  106.23    4.75
  -8  -6  -5  113.82    4.97
  -8   6  -5  103.31    5.06
  -8  -6  -6  238.09    7.71
  -8   7  10    0.17    1.73
  -8  -7   9    0.41    1.51
  -8   7   9    0.78    1.64
  -8   7   9    0.15    1.39
  -8  -7   8    0.92    1.37
  -8   7   8    4.17    1.57
  -8  -7   8    4.61    1.97
  -8   7   8    1.80    1.62
  -8  -7   7    2.32    1.18
  -8   7   7    2.94    1.44
  -8   7   7    4.05    1.47
  -8  -7   7    3.81    1.93
   8   7  -6    6.77    1.10
  -8   7   6    5.78    1.55
  -8   7   6    6.13    1.40
  -8  -7   6    5.69    1.11
   8   7  -5   -0.74    1.02
  -8   7   5   -0.14    1.35
  -8   7   5   -0.09    1.10
   8   7  -4    3.25    1.21
  -8   7   4    3.02    0.89
  -8  -7   4    3.79    1.85
  -8  -7   3    0.64    1.14
  -8  -7   3    1.95    1.78
  -8  -7   2   22.56    1.98
  -8  -7   2   21.27    2.43
  -8   7   2   24.23    1.52
  -8  -7   1   12.12    1.79
  -8  -7   0    4.99    1.49
  -8  -7  -1   12.46    1.97
  -8   7  -1   12.20    2.10
  -8  -7  -2   31.67    2.62
  -8   7  -2   29.79    2.76
  -8   7  -3   59.79    3.63
  -8  -7  -3   61.15    3.54
  -8   7  -3   63.45    2.49
  -8   7  -4   52.25    3.65
  -8  -7  -4   46.21    3.12
  -8  -7  -4   54.08    3.41
  -8   7  -4   48.92    2.30
  -8  -7  -5    6.08    1.68
  -8  -7  -5   10.46    1.95
  -8  -7  -6   13.15    2.23
  -8   8  10    1.79    1.77
  -8   8   9    9.84    2.10
  -8  -8   8   22.77    2.08
  -8   8   8   22.60    2.37
  -8   8   8   24.71    2.28
  -8  -8   8   26.01    2.97
  -8  -8   7    0.30    1.16
  -8   8   7    1.30    1.49
  -8   8   7    1.48    1.30
  -8   8   6    4.46    1.47
   8   8  -6    6.70    1.20
  -8   8   6    5.76    1.43
   8   8  -6    7.84    1.27
  -8   8   5   27.55    1.98
   8   8  -5   28.84    1.90
  -8   8   5   32.68    2.35
  -8  -8   5   27.96    2.75
   8   8  -4  130.31    4.14
  -8  -8   4  126.21    5.23
  -8  -8   3   52.39    2.70
   8   8  -3   54.21    2.74
  -8  -8   3   55.13    3.52
  -8   8   3   58.73    2.51
  -8   8   2    4.68    1.14
  -8  -8   2    5.76    1.47
  -8  -8   2    4.20    1.73
  -8  -8   1   34.59    2.45
  -8   8   0   72.00    3.71
  -8  -8   0   67.51    3.46
  -8   8  -1  121.91    4.98
  -8  -8  -1  131.18    5.00
  -8   8  -2   60.39    3.66
  -8  -8  -2   61.27    3.49
  -8  -8  -3    5.11    1.70
  -8   8  -3    5.80    1.87
  -8   8  -3    6.27    1.26
  -8  -8  -4   25.25    2.59
  -8   8  -4   19.26    2.51
  -8  -8  -4   22.98    2.39
  -8   8  -4   20.40    1.71
  -8  -8  -5   12.65    2.07
  -8  -8  -6   69.05    3.96
  -8   9   9    0.17    1.67
  -8  -9   8   -0.12    1.34
   8   9  -8    0.51    1.41
  -8   9   8   -0.15    1.63
  -8   9   8    0.13    1.33
   8   9  -7    4.18    1.41
  -8   9   7    2.32    1.56
  -8  -9   7    3.09    1.31
  -8   9   6    6.06    1.57
   8   9  -6    7.40    1.29
  -8   9   6    3.37    1.37
  -8  -9   6    7.23    2.09
  -8   9   5    4.61    0.61
  -8   9   5    4.19    1.43
   8   9  -5    7.86    1.40
  -8  -9   5    7.38    2.00
   8   9  -4    2.35    1.32
  -8  -9   4    2.81    1.96
   8   9  -3   31.00    2.21
  -8   9   3   37.11    2.14
  -8  -9   3   31.71    2.83
  -8  -9   2   51.50    2.86
   8   9  -2   44.51    2.68
  -8  -9   2   48.61    3.29
  -8   9   2   49.38    2.37
  -8  -9   1   53.51    3.40
  -8   9   1   59.57    2.54
  -8  -9   1   61.04    3.20
  -8  -9   0    9.55    1.74
  -8   9   0   10.82    1.92
  -8  -9  -1   12.82    2.10
  -8   9  -1   12.06    2.11
  -8   9  -2   45.15    3.22
  -8  -9  -2   48.45    3.25
  -8   9  -3   32.84    2.99
  -8  -9  -3   39.38    2.98
  -8  -9  -4   20.95    2.49
  -8   9  -4   16.98    2.48
  -8   9  -4   21.41    1.82
  -8  -9  -5   -0.56    1.54
  -8  -9  -6    2.34    1.71
  -8  10   9    2.26    1.89
  -8  10   8    4.12    1.83
   8  10  -7   12.01    1.74
  -8  10   7    7.56    1.89
  -8  10   7   13.31    1.74
  -8 -10   7    9.64    2.13
  -8  10   6    1.00    1.26
   8  10  -6    2.34    1.15
  -8  10   6    2.58    1.45
  -8 -10   6    0.82    1.85
   8  10  -6    0.79    0.84
  -8  10   5   12.83    0.94
  -8  10   5   13.49    1.75
   8  10  -5   13.48    1.61
  -8 -10   5   15.61    2.38
   8  10  -4    7.31    1.51
  -8 -10   4    6.31    2.07
   8  10  -3   20.59    1.95
  -8 -10   3   18.06    2.45
  -8  10   3   22.59    1.92
  -8  10   2    5.46    1.32
  -8 -10   2    6.32    1.57
   8  10  -2    3.94    0.68
   8  10  -2    8.43    1.65
  -8 -10   2    6.78    2.02
  -8  10   1    7.19    1.75
  -8 -10   1    6.47    1.68
  -8  10   1    7.14    1.36
   8  10  -1    7.20    1.65
  -8 -10   1    4.08    1.82
  -8  10   0    3.26    1.57
   8  10   0    1.47    0.37
  -8  10  -1  106.80    4.52
  -8 -10  -1  113.09    4.60
  -8  10  -2   45.39    3.21
  -8 -10  -2   45.03    3.21
  -8 -10  -3    5.31    1.76
  -8  10  -3    4.39    1.84
  -8  10  -4   35.52    3.12
  -8 -10  -4   40.31    3.21
  -8 -10  -5   42.80    3.11
  -8  11   9   -0.72    1.81
  -8  11   8    4.12    1.88
  -8  11   7    1.49    1.69
  -8 -11   7    5.27    1.96
   8  11  -6    6.83    1.46
  -8  11   6    7.79    1.51
   8  11  -6    4.84    1.32
  -8 -11   6    6.33    2.09
   8  11  -5   -0.35    0.86
  -8  11   5    0.12    1.23
   8  11  -5    1.02    1.20
  -8 -11   5    1.01    1.74
  -8  11   4    1.49    0.97
   8  11  -4    2.67    1.36
  -8 -11   4   -0.59    1.68
   8  11  -3    5.05    1.56
  -8 -11   3    4.55    1.89
  -8  11   3    5.15    1.51
  -8  11   2   20.03    1.88
  -8  11   2   18.02    2.05
  -8 -11   2   13.75    1.92
   8  11  -2   14.90    1.91
  -8 -11   2   15.62    2.31
  -8  11   1   19.01    2.18
  -8  11   1   16.68    1.76
  -8 -11   1   14.85    1.99
   8  11  -1   15.47    2.05
  -8 -11   1   19.04    2.39
  -8  11   0    1.47    1.52
  -8 -11   0   -1.17    1.55
   8  11   0   -0.31    1.45
  -8 -11   0   -0.88    1.59
  -8  11  -1    6.58    1.85
  -8 -11  -1    8.75    1.88
  -8  11  -2   14.79    2.27
  -8 -11  -2   13.11    2.21
  -8 -11  -3   96.64    4.68
  -8  11  -3   85.42    4.46
  -8  11  -4   34.81    3.27
  -8 -11  -5    2.40    1.60
  -8  12   8    1.37    1.85
  -8  12   7   -1.25    1.81
  -8  12   6    0.80    1.17
   8  12  -6    1.14    1.23
  -8 -12   6    2.36    2.00
  -8  12   5    1.81    1.27
   8  12  -5    3.02    1.35
  -8 -12   5    4.52    1.90
   8  12  -5    0.10    0.66
  -8  12   4   42.59    2.15
   8  12  -4   40.91    2.59
  -8 -12   4   47.41    3.38
  -8  12   3   17.67    2.01
   8  12  -3   16.95    1.98
  -8 -12   3   16.53    2.36
  -8  12   3   16.33    1.90
  -8  12   2    0.71    1.34
  -8  12   2   -0.29    1.41
  -8 -12   2    1.71    1.45
   8  12  -2   -0.14    1.43
  -8 -12   2    1.31    1.68
  -8  12   1   21.51    2.22
  -8 -12   1   25.29    2.45
   8  12  -1   21.49    2.29
  -8 -12   1   19.78    2.47
  -8  12   1   27.70    2.17
  -8  12   0   24.72    2.36
  -8 -12   0   25.28    2.51
   8  12   0   24.51    2.40
  -8 -12   0   25.10    2.57
  -8  12  -1   29.04    2.67
  -8 -12  -1   26.86    2.64
  -8  12  -2    7.03    1.96
  -8 -12  -2    7.28    1.94
  -8  12  -3    1.64    1.83
  -8 -12  -3   -0.63    1.58
  -8 -12  -5    6.78    1.85
  -8  13   8   -0.89    1.79
  -8 -13   6    7.43    2.07
   8  13  -5   10.27    1.67
  -8 -13   5    7.98    2.12
  -8  13   4   -0.25    1.28
  -8  13   4    1.70    1.09
   8  13  -4    0.14    1.29
  -8 -13   4   -1.01    1.67
  -8  13   3   13.32    1.85
   8  13  -3   18.38    2.08
  -8 -13   3   15.48    2.36
  -8  13   3   13.36    1.91
  -8  13   2   21.70    2.18
  -8  13   2   19.60    2.09
   8  13  -2   18.53    2.14
  -8 -13   2   22.24    2.61
  -8  13   1   46.73    2.96
  -8 -13   1   52.91    3.28
   8  13  -1   42.44    2.97
  -8 -13   1   45.34    3.28
  -8  13   1   46.94    2.79
  -8  13   0   -1.32    1.55
  -8 -13   0   -0.18    1.66
   8  13   0    0.85    1.52
  -8 -13   0   -0.37    1.63
  -8  13  -1    2.14    1.67
  -8 -13  -1    3.67    1.66
   8  13   1    1.62    1.60
  -8 -13  -1    4.10    1.71
  -8  13  -2   15.41    2.36
  -8 -13  -2   17.70    2.45
  -8  13  -3   60.40    3.97
   8  14  -5    5.45    1.55
  -8 -14   5    8.57    2.23
  -8  14   4   -0.46    1.16
   8  14  -4    0.86    1.39
  -8 -14   4   -0.82    1.79
  -8  14   3    3.93    1.62
  -8  14   3    5.22    1.59
   8  14  -3    5.86    1.74
  -8 -14   3    2.98    1.83
  -8  14   2    9.98    1.82
  -8  14   2    6.45    1.67
   8  14  -2    5.09    1.67
  -8 -14   2    8.27    2.06
  -8  14   1    3.82    1.54
  -8  14   1    1.79    1.48
  -8 -14   1    0.91    1.54
   8  14  -1    2.01    1.56
  -8 -14   1    3.38    1.70
  -8  14   0   -1.49    1.71
  -8 -14   0    0.38    1.59
   8  14   0   -3.00    1.76
  -8 -14   0   -1.68    1.63
  -8  14  -1   11.16    2.10
  -8 -14  -1   11.65    2.13
   8  14   1    8.95    2.02
  -8 -14  -1   11.03    2.00
  -8  14  -2    0.19    1.66
  -8 -14  -2    0.18    1.51
  -8  14  -3    2.51    2.04
   8  15  -5    0.14    1.41
   8  15  -4    0.30    1.47
  -8 -15   4   -1.67    1.86
  -8  15   3    5.00    1.80
   8  15  -3    4.57    1.68
  -8 -15   3    2.60    1.87
  -8  15   2    7.88    1.89
  -8  15   2    5.02    1.56
   8  15  -2    3.16    1.68
  -8 -15   2    6.84    2.00
  -8  15   1    7.51    1.74
  -8  15   1    7.01    1.84
   8  15  -1    7.16    1.89
  -8 -15   1    6.43    1.95
  -8  15   0    5.68    1.71
  -8 -15   0    6.19    1.97
   8  15   0    9.89    2.02
  -8 -15   0    4.64    1.81
  -8  15  -1    2.17    1.50
  -8 -15  -1    0.84    1.67
  -8 -15  -1    0.18    1.64
  -8  15  -2    8.25    2.06
  -8 -15  -2    6.98    1.83
   8  16  -5   -1.37    1.44
   8  16  -4   11.60    1.98
   8  16  -3    2.48    1.60
  -8 -16   3    2.64    1.91
  -8  16   2    0.32    1.68
   8  16  -2   -0.70    1.57
  -8 -16   2    0.98    1.61
  -8  16   1    6.42    1.95
   8  16  -1   10.76    2.02
  -8 -16   1    7.25    1.95
  -8  16   0   18.10    2.30
  -8 -16   0   16.73    2.33
  -8  16  -1    1.64    1.70
  -8 -16  -1    1.28    1.58
  -8  16  -2    1.58    1.72
  -8 -16  -2   -0.18    1.52
   8  17  -4    0.17    1.41
  -8  17   4   -1.10    1.76
  -8  17   3    8.72    2.04
   8  17  -3    8.89    1.88
  -8 -17   3   10.32    2.20
  -8  17   2   15.25    2.31
  -8 -17   2   13.84    2.17
  -8 -17   1   19.42    2.44
  -8 -17   0    0.93    1.57
  -8 -17  -1    2.55    1.60
  -8  18   4    4.27    2.00
  -8  18   3   -0.38    1.77
  -8  18   2    0.55    1.79
  -8 -18   2   -0.20    1.76
  -8 -18   1    0.38    1.67
  -9   0   9   -1.01    1.71
  -9   0   8   11.68    2.26
  -9   0   7   13.61    2.20
  -9   0   6   10.10    2.00
  -9   0   5    1.59    0.51
  -9   0   5    0.18    1.61
  -9   0   4   30.64    2.76
  -9   0   4   30.60    1.56
  -9   0   3   98.59    3.25
  -9   0   2  171.82    4.86
  -9   0   1    7.41    1.33
  -9   0   0    5.85    1.39
  -9   0  -1  138.14    4.96
  -9   0  -2  295.94    8.22
  -9   0  -3   57.33    3.56
  -9   0  -3   57.15    3.53
  -9   0  -4    3.19    1.73
  -9   0  -4    2.64    1.57
  -9   1   9    1.97    1.84
  -9  -1   9   -1.03    1.79
  -9   1   8   -0.19    1.76
  -9  -1   8    0.20    1.76
  -9   1   7    4.26    1.83
  -9  -1   7    3.67    1.80
  -9   1   6    3.06    1.56
  -9  -1   6    2.06    1.69
  -9  -1   5    0.25    0.38
  -9   1   5    0.18    1.51
  -9  -1   5   -0.19    1.65
  -9   1   4   12.76    1.12
  -9  -1   4   14.14    1.28
  -9   1   4   15.02    2.20
  -9  -1   4   18.50    2.40
  -9   1   3    0.61    1.13
  -9  -1   3    0.17    1.10
  -9  -1   2   -0.50    1.19
  -9   1   2    1.71    1.18
  -9   1   1    6.43    1.34
  -9  -1   1    5.28    1.30
  -9   1   0    7.36    1.49
  -9  -1   0    7.22    1.44
  -9   1  -1    0.43    1.49
  -9  -1  -1    1.44    1.54
  -9   1  -2    7.89    2.02
  -9  -1  -2   15.20    2.16
  -9  -1  -3    4.81    1.88
  -9   1  -3    0.52    1.60
  -9  -1  -3    1.39    1.46
  -9   1  -4   11.37    2.05
  -9  -1  -4    9.29    1.96
  -9   1  -4    7.96    1.84
  -9  -1  -4    7.39    1.78
  -9   2   9    7.51    2.01
  -9   2   8   22.29    2.62
  -9  -2   8   23.04    2.69
  -9   2   7   26.61    2.59
  -9  -2   7   24.62    2.75
  -9  -2   6    3.38    0.85
  -9   2   6    1.59    1.48
  -9  -2   6    3.06    1.69
  -9   2   5   22.27    2.43
  -9  -2   5   19.35    2.45
  -9  -2   4   75.92    2.57
  -9   2   4   69.47    3.80
  -9  -2   4   70.70    3.99
  -9   2   4   68.51    2.21
  -9   2   3   74.64    2.73
  -9  -2   3   75.18    2.92
  -9   2   2   24.70    1.83
  -9  -2   2   27.33    1.95
  -9   2   1    0.44    1.07
  -9  -2   1    3.27    1.23
  -9   2   0    6.97    1.46
  -9  -2   0   10.41    1.61
  -9   2  -1  119.54    4.60
  -9  -2  -1  111.62    4.46
  -9   2  -2  241.39    7.24
  -9  -2  -2  242.25    7.21
  -9   2  -3  165.08    5.91
  -9  -2  -3  166.22    5.88
  -9  -2  -4    9.42    2.06
  -9   2  -4    7.01    1.86
  -9  -2  -4    3.99    1.70
  -9   3  10    4.30    1.86
  -9   3   9    0.94    1.67
  -9   3   8    1.81    1.70
  -9  -3   8   -1.04    1.84
  -9   3   7    2.66    1.67
  -9  -3   7    1.81    1.73
  -9  -3   6    1.60    0.76
  -9   3   6    1.55    1.53
  -9  -3   6    1.95    1.72
  -9   3   5    1.71    1.49
  -9  -3   5    0.77    1.65
  -9   3   4    3.46    0.84
  -9  -3   4    4.30    1.13
  -9  -3   4    6.39    1.97
  -9  -3   3    2.03    1.13
  -9   3   3    1.11    1.07
  -9  -3   2    2.61    1.22
  -9   3   2    1.12    1.15
  -9  -3   1    9.82    1.49
  -9   3   1    9.45    1.42
  -9   3   0    2.67    1.31
  -9  -3   0    2.68    1.30
  -9   3  -1    1.43    1.48
  -9  -3  -1    2.68    1.56
  -9   3  -2   35.58    3.10
  -9   3  -2   26.49    2.64
  -9  -3  -2   30.23    2.66
  -9   3  -3    7.88    2.07
  -9   3  -3    9.76    1.91
  -9  -3  -3   12.21    1.94
  -9  -3  -4   -0.83    1.53
  -9   3  -4    1.71    1.69
  -9  -3  -4   -0.96    1.53
  -9   4  10    0.38    1.60
  -9   4   9   -0.37    1.69
  -9   4   8   10.10    2.04
  -9  -4   8    8.57    2.28
  -9   4   7    6.93    1.80
  -9  -4   7    3.49    1.89
  -9  -4   6    5.23    0.88
  -9   4   6    7.11    1.76
  -9  -4   6    6.00    1.98
  -9   4   5    1.00    1.42
  -9  -4   5    0.78    1.62
  -9  -4   4   30.86    1.83
  -9  -4   4   32.06    2.97
  -9   4   4   29.45    1.43
  -9   4   3   79.77    2.81
  -9  -4   3   77.89    3.11
  -9   4   2  110.12    3.71
  -9  -4   2  109.32    3.97
  -9  -4   1    3.40    1.23
  -9   4   1    4.59    1.25
  -9  -4   0   13.95    1.83
  -9   4   0   13.84    1.80
  -9   4  -1  134.69    4.90
  -9  -4  -1  134.40    4.99
  -9   4  -2  204.17    7.01
  -9   4  -2  213.24    6.69
  -9  -4  -2  196.40    6.50
  -9   4  -3   43.12    3.34
  -9   4  -3   39.76    2.96
  -9  -4  -3   42.71    3.04
  -9  -4  -4    2.05    1.36
  -9   4  -4    0.19    1.61
  -9  -4  -4   -0.20    1.49
  -9   5   7    0.85    1.49
  -9  -5   7    2.31    1.82
  -9   5   6    0.50    1.45
  -9  -5   6   -1.23    1.79
  -9   5   5    9.10    1.20
  -9   5   5   10.82    1.92
  -9   5   4   30.30    1.47
  -9   5   4   29.62    1.46
  -9  -5   3    0.93    1.23
  -9   5   3    1.39    0.51
  -9   5   3    0.91    1.05
  -9  -5   2    1.66    1.30
  -9   5   2    2.97    1.18
  -9  -5   1    5.55    1.45
  -9   5   1    5.67    1.31
  -9   5   0   36.48    2.47
  -9  -5   0   36.66    2.60
  -9  -5  -1    6.21    1.80
  -9   5  -1    8.33    1.78
  -9   5  -2    6.19    2.04
  -9   5  -2    3.08    1.77
  -9  -5  -2    6.05    1.77
  -9   5  -3    1.05    1.68
  -9   5  -3    5.34    1.75
  -9  -5  -3    2.01    1.49
  -9  -5  -4   11.64    2.14
  -9   5  -4   12.81    2.10
  -9  -5  -4   11.67    2.01
  -9   6   8   11.94    2.10
  -9   6   7    9.30    1.54
  -9   6   7   10.40    1.88
  -9  -6   7    9.24    2.25
  -9   6   6    2.44    1.51
  -9  -6   6    3.35    1.86
  -9   6   6   -0.74    1.13
  -9   6   5   13.51    2.02
  -9   6   5    7.85    1.19
  -9   6   4   42.25    1.71
  -9   6   4   39.59    1.83
  -9   6   3   55.45    2.38
  -9  -6   3   53.10    3.58
  -9   6   3   55.55    1.94
  -9   6   3   51.58    1.83
  -9   6   2   13.90    0.84
  -9  -6   2   19.87    2.00
  -9   6   2   17.27    1.67
  -9  -6   1    0.69    1.30
  -9   6   1    1.39    1.20
  -9  -6   0    4.32    1.59
  -9   6   0    2.39    1.34
  -9   6  -1   76.10    4.07
  -9  -6  -1   73.65    3.78
  -9   6  -2  134.85    5.60
  -9  -6  -2  142.20    5.36
  -9   6  -3  121.36    5.38
  -9  -6  -3  115.98    4.93
  -9  -6  -4    4.27    1.68
  -9   6  -4    1.18    1.46
  -9  -6  -4    1.40    1.50
  -9   7   8   -1.31    1.59
  -9   7   7    2.57    1.54
  -9  -7   7    1.54    1.92
  -9   7   6    4.88    1.32
  -9   7   6    2.38    1.48
  -9   7   5    8.20    1.29
  -9   7   5    7.72    1.69
  -9   7   4    1.40    0.84
  -9   7   4    0.99    1.04
  -9   7   3    0.46    0.87
  -9   7   3    2.54    0.99
  -9  -7   3    1.64    1.36
  -9   7   3    1.06    1.09
  -9  -7   3    1.39    1.78
  -9  -7   2   -0.26    1.28
  -9   7   2    0.71    1.12
  -9  -7   2    0.39    1.79
  -9  -7   1   -0.43    1.32
  -9  -7   0   25.57    2.38
  -9  -7  -1   21.94    2.41
  -9   7  -1   24.74    2.68
  -9  -7  -2   19.60    2.35
  -9   7  -2   23.70    2.66
  -9  -7  -3    9.76    1.96
  -9   7  -3   10.70    2.18
  -9  -7  -4    4.24    1.80
  -9   8   8    9.19    1.90
  -9   8   7    2.03    1.44
  -9   8   6    3.32    1.33
  -9   8   6    2.94    1.48
  -9   8   5    1.30    1.13
  -9   8   5    0.62    1.45
  -9  -8   5    1.06    1.78
  -9   8   4   22.82    1.70
  -9   8   4   22.77    1.43
  -9  -8   4   25.16    2.84
  -9  -8   3   52.68    2.86
  -9   8   3   53.32    2.41
  -9  -8   3   54.53    3.65
  -9   8   3   57.68    2.36
  -9  -8   2   67.90    3.34
  -9  -8   2   67.75    4.03
  -9  -8   1    5.97    1.62
  -9  -8   0    9.87    1.94
  -9   8   0   12.28    2.19
  -9   8  -1   73.38    4.09
  -9  -8  -1   78.22    4.00
  -9   8  -2   72.93    4.13
  -9  -8  -2   73.48    4.01
  -9   8  -3   10.11    2.12
  -9   9   7    0.30    1.39
  -9   9   6    0.60    1.46
  -9  -9   6    1.55    1.83
  -9   9   5    6.81    1.70
  -9  -9   5   10.59    2.24
  -9   9   5    7.90    1.45
  -9  -9   4   32.32    3.10
  -9   9   3    1.03    1.12
  -9  -9   3    1.31    1.30
  -9  -9   3   -0.42    1.92
  -9  -9   2    3.89    1.55
  -9   9   2    1.72    1.10
  -9  -9   2    3.22    1.87
  -9   9   1   32.52    2.75
  -9  -9   1   27.32    2.40
  -9  -9   1   26.86    2.76
  -9   9   0   48.18    3.30
  -9  -9   0   48.61    3.16
  -9  -9  -1   18.02    2.35
  -9   9  -1   19.23    2.52
  -9  -9  -2   10.35    1.99
  -9   9  -2   10.67    2.16
  -9  -9  -3    6.92    1.93
  -9  10   6    2.20    1.40
   9  10  -5    9.12    1.56
  -9  10   5    7.11    1.63
  -9 -10   5    5.51    1.93
   9  10  -4   18.83    1.98
  -9 -10   4   23.01    2.87
  -9  10   4   21.64    1.94
  -9 -10   3   21.56    2.68
  -9  10   3   27.62    2.00
  -9  10   2    5.42    1.29
  -9 -10   2    7.59    1.72
  -9 -10   2    3.08    1.83
  -9  10   1    2.97    1.73
  -9 -10   1    0.16    1.47
  -9 -10   1    1.59    1.75
  -9  10   0    5.93    1.87
  -9 -10   0    7.30    1.87
  -9  10  -1   38.13    3.16
  -9 -10  -1   40.87    3.10
  -9  10  -2   49.86    3.58
  -9 -10  -2   57.77    3.64
  -9  11   5    8.82    1.76
  -9 -11   5   12.06    2.42
   9  11  -4    2.60    1.47
  -9 -11   4    4.56    2.00
  -9  11   4    3.07    1.50
  -9  11   3    0.11    1.23
  -9 -11   3    1.48    1.80
  -9  11   2    1.83    1.58
  -9  11   2    0.41    1.21
  -9 -11   2    0.64    1.53
  -9 -11   2    2.96    1.99
  -9  11   1    9.66    2.02
  -9 -11   1    6.46    1.79
  -9 -11   1    8.73    2.09
  -9  11   0   15.19    2.30
  -9 -11   0   13.51    2.14
  -9 -11   0   14.47    2.30
  -9  11  -1   22.46    2.60
  -9 -11  -1   15.17    2.36
  -9  11  -2    8.40    2.21
  -9 -11  -2    6.10    1.88
   9  12  -4    5.76    1.58
  -9 -12   4    7.09    2.13
  -9  12   3   15.52    2.13
   9  12  -3   13.48    1.97
  -9 -12   3   14.57    2.54
  -9  12   2   28.05    2.58
   9  12  -2   27.62    2.56
  -9 -12   2   27.28    2.53
  -9 -12   2   23.20    2.81
  -9  12   1   -0.70    1.58
  -9 -12   1   -0.71    1.62
  -9 -12   1   -1.03    1.74
  -9  12   0   11.87    2.08
  -9 -12   0   11.85    2.19
  -9 -12   0   11.66    2.28
  -9  12  -1   41.12    3.27
  -9 -12  -1   46.16    3.37
  -9  12  -2   35.14    3.17
   9  13  -4   34.63    2.62
  -9  13   3    0.62    1.45
   9  13  -3   -0.61    1.39
  -9 -13   3    1.09    1.90
  -9  13   2    0.33    1.51
   9  13  -2   -0.65    1.61
  -9 -13   2   -0.42    1.81
  -9  13   1   33.07    2.84
   9  13  -1   28.04    2.67
  -9 -13   1   31.98    2.83
  -9 -13   1   31.08    3.04
  -9  13   0   31.57    2.79
  -9 -13   0   30.60    2.87
  -9 -13   0   28.65    2.90
  -9  13  -1   13.84    2.29
  -9 -13  -1   12.99    2.26
   9  14  -3    5.60    1.72
  -9  14   2   -0.16    1.52
   9  14  -2   -0.17    1.60
  -9 -14   2   -0.21    1.69
  -9  14   1    2.45    1.72
   9  14  -1   -1.07    1.72
  -9 -14   1    1.74    1.78
  -9 -14   1   -0.63    1.77
  -9  14   0    2.26    1.73
  -9 -14   0    2.45    1.70
  -9  14  -1    7.70    2.07
  -9 -14  -1    8.09    2.10
   9  15  -3   -0.33    1.48
   9  15  -2    4.23    1.69
  -9  15  -1    3.06    1.77
 -10   0   7    2.52    1.86
 -10   0   6   15.17    2.49
 -10   0   5   33.96    3.03
 -10   0   4   -0.99    1.73
 -10   0   3    6.85    1.29
 -10   0   2   39.33    2.39
 -10   0   1  122.02    4.37
 -10   0   0   21.05    2.14
 -10   0  -1   -0.16    1.42
 -10   0  -2  109.18    4.66
 -10   0  -3   95.05    4.50
 -10   1   7    0.21    1.70
 -10  -1   7    0.43    1.74
 -10   1   6    6.04    2.06
 -10  -1   6    2.93    1.82
 -10   1   5    4.18    1.91
 -10  -1   5    1.46    1.77
 -10  -1   4   -0.35    0.79
 -10   1   4   -0.78    1.72
 -10  -1   4   -0.60    1.66
 -10   1   3    6.05    1.21
 -10  -1   3    6.22    1.26
 -10  -1   2   -0.11    1.20
 -10   1   2    0.95    1.18
 -10   1   1    2.22    1.42
 -10  -1   1    3.03    1.51
 -10   1   0    1.67    1.34
 -10  -1   0    3.28    1.42
 -10   1  -1   12.31    1.94
 -10  -1  -1   15.41    2.07
 -10   1  -2    2.07    1.53
 -10  -1  -2    3.45    1.61
 -10   1  -3    1.32    1.50
 -10  -1  -3    5.08    1.72
 -10   2   8    0.62    1.67
 -10   2   7   29.64    2.95
 -10  -2   7   26.02    2.97
 -10   2   6   32.98    3.06
 -10  -2   6   41.73    3.35
 -10   2   5    8.02    2.05
 -10  -2   5    8.74    2.18
 -10  -2   4    1.65    0.91
 -10   2   4    3.05    1.71
 -10  -2   4    2.26    1.79
 -10   2   3   31.52    1.90
 -10  -2   3   33.19    2.04
 -10   2   2   53.71    2.65
 -10  -2   2   52.38    2.76
 -10   2   1   51.14    2.83
 -10  -2   1   53.03    2.91
 -10   2   0   10.19    1.73
 -10  -2   0   12.38    1.81
 -10   2  -1   -0.78    1.58
 -10  -2  -1    3.04    1.54
 -10   2  -2   18.26    2.25
 -10  -2  -2   17.96    2.23
 -10   2  -3   73.44    3.97
 -10  -2  -3   66.25    3.89
 -10   3   8    1.81    1.67
 -10   3   7    2.57    1.90
 -10   3   6    1.36    1.83
 -10  -3   6    3.69    1.88
 -10   3   5    0.38    1.66
 -10  -3   5    2.15    1.98
 -10  -3   4    3.90    1.03
 -10   3   4    1.88    1.65
 -10  -3   4    1.05    1.70
 -10  -3   3    0.31    1.07
 -10  -3   3    1.84    1.61
 -10   3   3   -0.08    1.00
 -10  -3   2    2.53    1.37
 -10   3   2    2.18    1.21
 -10  -3   1    6.29    1.69
 -10   3   1    5.03    1.54
 -10   3   0    1.96    1.48
 -10  -3   0    3.54    1.49
 -10   3  -1    0.32    1.48
 -10  -3  -1    1.94    1.50
 -10   3  -2    5.41    1.69
 -10  -3  -2    4.77    1.71
 -10   3  -3    2.67    1.62
 -10  -3  -3    1.73    1.64
 -10   4   8    1.38    1.60
 -10   4   7    0.58    1.70
 -10   4   6    8.60    2.07
 -10  -4   6    9.07    2.24
 -10   4   5   22.99    2.65
 -10  -4   5   23.98    2.88
 -10  -4   4    0.17    0.91
 -10  -4   4    0.86    1.77
 -10  -4   3    5.04    1.31
 -10   4   3    4.81    1.15
 -10   4   2   35.65    2.19
 -10  -4   2   32.58    2.31
 -10  -4   1   97.78    4.03
 -10  -4   0   13.97    1.93
 -10   4   0   14.90    2.04
 -10   4  -1    3.97    1.65
 -10  -4  -1    4.12    1.63
 -10   4  -2   96.69    4.47
 -10  -4  -2  100.03    4.51
 -10   4  -3   65.91    3.85
 -10   5   8    1.35    1.63
 -10   5   7    1.33    1.70
 -10   5   6    1.12    1.69
 -10   5   5    1.48    1.61
 -10  -5   5   -0.22    1.74
 -10  -5   4    5.54    1.20
 -10  -5   3   19.59    1.86
 -10   5   3   18.41    1.56
 -10  -5   2    5.57    1.54
 -10   5   2    2.11    1.21
 -10  -5   1    3.04    1.62
 -10  -5   0   21.29    2.23
 -10   5   0   17.37    2.07
 -10  -5  -1   34.54    2.75
 -10   5  -1   37.99    3.18
 -10   5  -1   32.46    2.67
 -10   5  -2    5.50    1.83
 -10  -5  -2    8.21    1.87
 -10   5  -3   -0.39    1.69
 -10   6   7   20.01    2.44
 -10   6   6   19.66    2.41
 -10   6   5    6.00    1.88
 -10  -6   3   16.25    1.79
 -10  -6   3   15.19    2.43
 -10   6   2   36.29    2.31
 -10  -6   2   31.58    3.08
 -10  -6   2   36.80    2.53
 -10  -6   1   48.24    2.99
 -10  -6   0   20.37    2.35
 -10   6   0   20.85    2.17
 -10  -6  -1    0.17    1.55
 -10   6  -1    0.43    1.67
 -10   6  -1   -0.65    1.56
 -10  -6  -2    6.55    1.86
 -10   6  -2    9.58    2.03
 -10   7   7    3.26    1.71
 -10   7   6    1.26    1.68
 -10   7   5    0.36    1.66
 -10  -7   4    7.02    2.14
 -10  -7   3    2.91    1.34
 -10  -7   3    0.66    1.78
 -10  -7   2   -0.84    1.39
 -10  -7   2    1.51    1.99
 -10   7   2   -0.22    1.21
 -10  -7   1    1.24    1.48
 -10  -7   0    8.45    1.87
 -10   7   0   12.08    2.24
 -10   7   0    9.40    1.88
 -10  -7  -1    2.53    1.74
 -10   7  -1    1.84    1.54
 -10   7  -2   13.08    2.22
 -10   8   6    3.17    1.69
 -10   8   5   11.04    2.06
 -10  -8   3    4.26    1.44
 -10  -8   3    5.65    2.06
 -10  -8   2   16.69    2.03
 -10   8   2   15.40    1.74
 -10  -8   2   11.84    2.31
 -10   8   1   57.06    3.08
 -10  -8   1   57.64    3.34
 -10  -8   0    9.38    1.99
 -10   8   0    8.83    2.15
 -10   8   0    6.73    1.72
 -10  -8  -1    2.25    1.69
 -10   8  -1    2.91    1.59
 -10   8  -2   51.96    3.47
 -10  -9   3   12.73    1.81
 -10  -9   2   -0.31    1.48
 -10  -9   2    1.57    1.83
 -10   9   1    0.39    1.67
 -10  -9   1    0.33    1.54
 -10  -9   1    1.53    1.83
 -10  -9   0   16.53    2.20
 -10   9   0   14.28    2.41
 -10  -9  -1   49.82    3.37
 -10  10   5    1.52    1.50
 -10  10   2   11.67    2.09
 -10  10   1   10.24    2.14
 -10 -10   1   12.54    2.07
 -10  10   0    1.66    2.03
 -10 -10   0    5.20    1.78
 -10  11   2    3.00    1.63
 -10 -11   2   -1.01    1.55
 -10  11   1   -1.19    1.85
 -10 -11   1   -0.36    1.57
 -10 -11   0    4.04    1.76
 -10  12   3    0.18    1.53
 -10  12   2    1.50    1.64
 -10 -12   2    0.53    1.56
 -10  12   1   20.89    2.56
 -10 -12   1   14.95    2.32
 -10  13   1    0.59    1.64
 -11   0   1   43.25    2.79
 -11   0   0  132.00    4.97
 -11   0  -1   30.37    2.64
 -11  -1   1    4.15    1.65
 -11   1   1    4.98    1.65
 -11   1   0    1.67    1.67
 -11  -1   0    2.93    1.69
 -11   1  -1    1.86    1.64
 -11  -1  -1    0.34    1.50
 -11   2   1   55.62    3.13
 -11  -2   1   65.42    3.36
 -11   2   0   33.95    2.74
 -11  -2   0   29.80    2.63
 -11   2  -1   11.99    2.01
 -11  -2  -1   16.17    2.22
 -11  -3   1    2.04    1.62
 -11  -3   0    1.12    1.60
 -11   3   0   -0.15    1.63
 -11   3  -1   -1.53    1.67
 -11  -3  -1    0.70    1.48
 -11  -4   1   34.85    2.71
 -11   4   0   99.86    4.28
 -11  -4  -1   16.98    2.24
 -11   4  -1   17.49    2.22
 -11   5   4   -1.82    1.83
 -11  -5   1    9.71    1.91
 -11  -5   0    5.11    1.90
 -11   5  -1    4.02    1.76
 -11  -6   1   35.60    2.77
 -11  -6   0   19.69    2.36
 -11   6  -1    9.39    1.97
 -11  -7   0    0.18    1.54
 -11  -8   1   17.47    2.32
 -11  -8   0   54.04    3.53
   0   0   0    0.00    0.00


TITL 20201013zhaohl2 in P2/m
REM P2/m (#10 in standard setting)
CELL 0.71073   8.543721  17.852043   9.333469  90.0000 101.3795  90.0000
ZERR    6.00   0.001596   0.003495   0.001327   0.0000   0.0159   0.0000
LATT  1
SYMM -x, y,-z
SFAC C H N O
UNIT 66.00 60.00 6.00 6.00
TREF
HKLF 4
END
_computing_structure_solution     'SHELXT 2014/5 (Sheldrick, 2014)'
;
_shelx_hkl_checksum   14595

